data_check
_audit_creation_date              2025-01-04
_audit_creation_method            'cif2lammps'
_symmetry_space_group_name_H-M    'P1'
_symmetry_Int_Tables_number       1
_symmetry_cell_setting            triclinic
loop_
_symmetry_equiv_pos_as_xyz
  x,y,z
_cell_length_a                    76.87303639800574
_cell_length_b                    77.05018723057744
_cell_length_c                    65.32273045924357
_cell_angle_alpha                 89.39325941298877
_cell_angle_beta                  90.48563902294285
_cell_angle_gamma                 125.26063057405139
loop_
_atom_site_label
_atom_site_type_symbol
_atom_site_fract_x
_atom_site_fract_y
_atom_site_fract_z
_atom_site_charge
O1         O        0.486695        0.504241        0.144769       -0.731600
O2         O        0.506639        0.484072        0.186919       -0.741400
O3         O        0.506690        0.484213        0.145194       -0.627600
O4         O        0.486861        0.504176        0.186352       -0.711700
O5         O        0.455077        0.472668        0.186564       -0.707200
O6         O        0.475038        0.452609        0.145085       -0.619800
O7         O        0.474884        0.452554        0.186834       -0.744800
O8         O        0.455012        0.472647        0.144954       -0.732600
Cu9       Cu        0.497836        0.495277        0.165794        1.045600
Cu10      Cu        0.463887        0.461502        0.165851        1.043300
C11        C        0.467578        0.491664        0.138263        0.930400
C12        C        0.493884        0.465060        0.193609        0.921800
C13        C        0.494129        0.465252        0.138611        0.843200
C14        C        0.467849        0.491683        0.193019        0.905900
C15        C        0.823973        0.413435        0.332149        0.029100
C16        C        0.835394        0.419076        0.017439       -0.132400
C17        C        0.857413        0.428656        0.017593        0.004100
C18        C        0.868264        0.433630        0.332331       -0.117600
C19        C        0.857416        0.428704        0.313637        0.029100
C20        C        0.835240        0.418229        0.313620       -0.111800
H21        H        0.827214        0.415746        0.031881        0.085000
H22        H        0.885314        0.441237        0.332424        0.060300
H23        H        0.826864        0.413833        0.299129        0.058800
C24        C        0.556051        0.404475        0.000899        0.029100
C25        C        0.550888        0.409574        0.315471       -0.132400
C26        C        0.539912        0.419123        0.315076        0.004100
C27        C        0.534989        0.424347        0.000272       -0.117600
C28        C        0.540442        0.419787        0.019101        0.029100
C29        C        0.550582        0.409397        0.019338       -0.111800
H30        H        0.554766        0.405442        0.301253        0.085000
H31        H        0.526851        0.432063        0.000037        0.060300
H32        H        0.554905        0.405823        0.033800        0.058800
C33        C        0.662674        0.332115        0.330769        0.029100
C34        C        0.649832        0.309762        0.330037       -0.132400
C35        C        0.627572        0.297904        0.332224        0.004100
C36        C        0.618060        0.308830        0.000943       -0.117600
C37        C        0.630465        0.331100        0.000513        0.029100
C38        C        0.652686        0.342632        0.332372       -0.111800
H39        H        0.657174        0.301525        0.327400        0.085000
H40        H        0.600978        0.300114        0.002730        0.060300
H41        H        0.662087        0.359799        0.333062        0.058800
C42        C        0.542537        0.137840        0.332498        0.029100
C43        C        0.535858        0.126859        0.017959       -0.132400
C44        C        0.525371        0.104736        0.018659        0.004100
C45        C        0.521492        0.093691        0.000357       -0.117600
C46        C        0.528049        0.104414        0.314822        0.029100
C47        C        0.538555        0.126531        0.314303       -0.111800
H48        H        0.539080        0.135572        0.032023        0.085000
H49        H        0.513556        0.076636        0.000809        0.060300
H50        H        0.543870        0.134981        0.299808        0.058800
O51        O        0.452164        0.954480        0.146352       -0.731600
O52        O        0.469171        0.996506        0.188307       -0.741400
O53        O        0.468665        0.996819        0.146582       -0.627600
O54        O        0.452488        0.954235        0.187923       -0.711700
O55        O        0.485395        0.961961        0.187894       -0.707200
O56        O        0.501672        0.004853        0.146206       -0.619800
O57        O        0.502048        0.004180        0.187983       -0.744800
O58        O        0.485179        0.962494        0.146327       -0.732600
Cu59      Cu        0.459468        0.975244        0.167290        1.045600
Cu60      Cu        0.494743        0.983669        0.167075        1.043300
C61        C        0.465997        0.951694        0.139795        0.930400
C62        C        0.488360        0.006980        0.194887        0.921800
C63        C        0.487710        0.007673        0.139805        0.843200
C64        C        0.466256        0.951246        0.194506        0.905900
O65        O        0.965447        0.487807        0.145399       -0.731600
O66        O        0.008233        0.504601        0.187182       -0.741400
O67        O        0.008090        0.505211        0.145408       -0.627600
O68        O        0.965754        0.487459        0.186959       -0.711700
O69        O        0.958378        0.454772        0.187003       -0.707200
O70        O        0.001027        0.472674        0.145134       -0.619800
O71        O        0.000827        0.471915        0.186883       -0.744800
O72        O        0.958331        0.455234        0.145414       -0.732600
Cu73      Cu        0.987155        0.497423        0.166238        1.045600
Cu74      Cu        0.979396        0.462503        0.166086        1.043300
C75        C        0.954954        0.468719        0.138870        0.930400
C76        C        0.011269        0.490852        0.193742        0.921800
C77        C        0.011376        0.491862        0.138640        0.843200
C78        C        0.955279        0.468338        0.193595        0.905900
C79        C        0.407526        0.554076        0.330754        0.029100
C80        C        0.412606        0.548896        0.016184       -0.132400
C81        C        0.422106        0.537880        0.016600        0.004100
C82        C        0.427290        0.532905        0.331410       -0.117600
C83        C        0.422742        0.538356        0.312569        0.029100
C84        C        0.412408        0.548556        0.312321       -0.111800
H85        H        0.408500        0.552805        0.030401        0.085000
H86        H        0.434967        0.524730        0.331658        0.060300
H87        H        0.408860        0.552892        0.297851        0.058800
C88        C        0.302605        0.627845        0.332752        0.029100
C89        C        0.313149        0.617899        0.330720       -0.132400
C90        C        0.335469        0.629806        0.331496        0.004100
C91        C        0.347426        0.651953        0.000122       -0.117600
C92        C        0.337224        0.662162        0.001796        0.029100
C93        C        0.314910        0.650044        0.001887       -0.111800
H94        H        0.304094        0.600870        0.328691        0.085000
H95        H        0.364672        0.661237        0.000378        0.060300
H96        H        0.307224        0.658076        0.003738        0.058800
C97        C        0.142465        0.546636        0.000194        0.029100
C98        C        0.131436        0.542964        0.018581       -0.132400
C99        C        0.109319        0.532845        0.018432        0.004100
C100       C        0.098316        0.526377        0.333071       -0.117600
C101       C        0.109072        0.529926        0.314588        0.029100
C102       C        0.131196        0.540041        0.314913       -0.111800
H103       H        0.140098        0.548158        0.032944        0.085000
H104       H        0.081257        0.518689        0.332898        0.060300
H105       H        0.139679        0.542975        0.300704        0.058800
C106       C        0.413576        0.821392        0.001872        0.029100
C107       C        0.418651        0.832336        0.316424       -0.132400
C108       C        0.427668        0.854194        0.315993        0.004100
C109       C        0.432466        0.865150        0.001160       -0.117600
C110       C        0.427935        0.854543        0.020016        0.029100
C111       C        0.418077        0.832525        0.020275       -0.111800
H112       H        0.414726        0.823676        0.302218        0.085000
H113       H        0.439624        0.882070        0.000861        0.060300
H114       H        0.414411        0.824122        0.034751        0.058800
C115       C        0.374648        0.720176        0.320478       -0.110500
C116       C        0.371848        0.730265        0.003348        0.060800
C117       C        0.358106        0.717594        0.019487       -0.098200
C118       C        0.346999        0.695466        0.019093       -0.114600
C119       C        0.349780        0.685576        0.002836       -0.012500
C120       C        0.363885        0.698085        0.320350       -0.103500
C121       C        0.382790        0.753778        0.003179        0.061100
H122       H        0.355939        0.724755        0.032477        0.080400
H123       H        0.336257        0.685994        0.031497        0.114900
H124       H        0.365990        0.690619        0.307568        0.117600
H125       H        0.384696        0.729257        0.307580        0.080600
C126       C        0.403107        0.767506        0.327664       -0.110600
C127       C        0.413028        0.789482        0.327037       -0.103500
C128       C        0.403077        0.798210        0.002307       -0.012500
C129       C        0.383007        0.784723        0.011372       -0.114400
C130       C        0.372851        0.762727        0.011607       -0.098500
H131       H        0.411480        0.761318        0.321423        0.080600
H132       H        0.428640        0.799769        0.320157        0.117600
H133       H        0.375057        0.791264        0.017900        0.114800
H134       H        0.357032        0.752731        0.018069        0.080500
C135       C        0.201047        0.589124        0.008944       -0.110500
C136       C        0.210501        0.580030        0.333251        0.060800
C137       C        0.197471        0.559735        0.324568       -0.098200
C138       C        0.175294        0.548864        0.324570       -0.114600
C139       C        0.165856        0.557935        0.000353       -0.012500
C140       C        0.178879        0.578058        0.009354       -0.103500
C141       C        0.233949        0.591900        0.332672        0.061100
H142       H        0.204521        0.552540        0.317459        0.080400
H143       H        0.165437        0.533319        0.317602        0.114900
H144       H        0.171834        0.585319        0.016341        0.117600
H145       H        0.210872        0.604735        0.015784        0.080600
C146       C        0.246327        0.612338        0.324022       -0.110600
C147       C        0.268524        0.623772        0.323664       -0.103500
C148       C        0.278870        0.615207        0.332387       -0.012500
C149       C        0.266333        0.594638        0.007670       -0.114400
C150       C        0.244080        0.583024        0.007619       -0.098500
H151       H        0.238741        0.619320        0.317329        0.080600
H152       H        0.277586        0.639290        0.316405        0.117600
H153       H        0.273727        0.587695        0.014866        0.114800
H154       H        0.234749        0.567314        0.014505        0.080500
C155       C        0.369266        0.610731        0.013697       -0.110500
C156       C        0.366669        0.598051        0.330280        0.060800
C157       C        0.353697        0.596105        0.313801       -0.098200
C158       C        0.343430        0.606313        0.314219       -0.114600
C159       C        0.346305        0.619050        0.330871       -0.012500
C160       C        0.359382        0.621293        0.013862       -0.103500
C161       C        0.377318        0.586844        0.330114        0.061100
H162       H        0.351662        0.586909        0.300445        0.080400
H163       H        0.333484        0.604579        0.301432        0.114900
H164       H        0.361535        0.630900        0.026935        0.117600
H165       H        0.378635        0.612228        0.026890        0.080600
C166       C        0.397272        0.595856        0.006324       -0.110600
C167       C        0.406969        0.585099        0.006670       -0.103500
C168       C        0.397202        0.565358        0.330421       -0.012500
C169       C        0.377537        0.556424        0.320576       -0.114400
C170       C        0.367572        0.566930        0.320606       -0.098500
H171       H        0.405559        0.611356        0.013343        0.080600
H172       H        0.422291        0.592303        0.014128        0.117600
H173       H        0.369729        0.541088        0.313250        0.114800
H174       H        0.352049        0.559237        0.313502        0.080500
C175       C        0.045595        0.487411        0.233409       -0.110500
C176       C        0.057202        0.507853        0.241893        0.060800
C177       C        0.054208        0.522984        0.233960       -0.098200
C178       C        0.039519        0.517625        0.218192       -0.114600
C179       C        0.027518        0.496980        0.209971       -0.012500
C180       C        0.030953        0.482027        0.217645       -0.103500
C181       C        0.071482        0.512987        0.259709        0.061100
H182       H        0.062763        0.538778        0.240413        0.080400
H183       H        0.037260        0.529510        0.212614        0.114900
H184       H        0.022083        0.466026        0.211576        0.117600
H185       H        0.047808        0.475542        0.239070        0.080600
C186       C        0.064789        0.498373        0.275959       -0.110600
C187       C        0.077400        0.503635        0.293456       -0.103500
C188       C        0.096995        0.523589        0.295078       -0.012500
C189       C        0.104099        0.537948        0.278571       -0.114400
C190       C        0.091402        0.532728        0.261060       -0.098500
H191       H        0.049436        0.483139        0.275435        0.080600
H192       H        0.071702        0.492267        0.305957        0.117600
H193       H        0.119098        0.553484        0.279579        0.114800
H194       H        0.097026        0.544178        0.248652        0.080500
C195       C        0.069993        0.528989        0.055868       -0.110500
C196       C        0.072001        0.518762        0.072702        0.060800
C197       C        0.087243        0.514184        0.072005       -0.098200
C198       C        0.099965        0.519419        0.054623       -0.114600
C199       C        0.097445        0.529065        0.037602       -0.012500
C200       C        0.082547        0.534037        0.038495       -0.103500
C201       C        0.057634        0.512310        0.090533        0.061100
H202       H        0.089216        0.506477        0.084866        0.080400
H203       H        0.111293        0.515350        0.054158        0.114900
H204       H        0.080490        0.541633        0.025575        0.117600
H205       H        0.058238        0.532506        0.055907        0.080600
C206       C        0.053098        0.526188        0.098353       -0.110600
C207       C        0.038379        0.519658        0.114142       -0.103500
C208       C        0.027728        0.498994        0.122461       -0.012500
C209       C        0.032641        0.485242        0.114901       -0.114400
C210       C        0.047483        0.491875        0.099141       -0.098500
H211       H        0.060921        0.542115        0.092139        0.080600
H212       H        0.035102        0.530721        0.119680        0.117600
H213       H        0.024761        0.469242        0.120996        0.114800
H214       H        0.050549        0.480807        0.093213        0.080500
C215       C        0.433626        0.909084        0.099680       -0.110500
C216       C        0.448727        0.906035        0.092096        0.060800
C217       C        0.469169        0.917392        0.100872       -0.098200
C218       C        0.474633        0.931932        0.116496       -0.114600
C219       C        0.459744        0.935487        0.123773       -0.012500
C220       C        0.439056        0.923655        0.115347       -0.103500
C221       C        0.443641        0.892012        0.074313        0.061100
H222       H        0.480996        0.915084        0.095526        0.080400
H223       H        0.490645        0.940620        0.122773        0.114900
H224       H        0.427201        0.925972        0.120657        0.117600
H225       H        0.417822        0.900683        0.093021        0.080600
C226       C        0.423832        0.872189        0.072681       -0.110600
C227       C        0.418883        0.859612        0.055307       -0.103500
C228       C        0.433584        0.866759        0.039232       -0.012500
C229       C        0.453527        0.886329        0.041104       -0.114400
C230       C        0.458502        0.898815        0.058434       -0.098500
H231       H        0.412186        0.866496        0.084806        0.080600
H232       H        0.403369        0.844611        0.054111        0.117600
H233       H        0.465193        0.892044        0.028981        0.114800
H234       H        0.473783        0.914108        0.059155        0.080500
C235       C        0.468128        0.916308        0.234815       -0.110500
C236       C        0.447285        0.904766        0.242584        0.060800
C237       C        0.432518        0.907832        0.233768       -0.098200
C238       C        0.438588        0.922605        0.217980       -0.114600
C239       C        0.459647        0.934731        0.210578       -0.012500
C240       C        0.474275        0.931158        0.218991       -0.103500
C241       C        0.441274        0.890651        0.260718        0.061100
H242       H        0.416265        0.898897        0.239274        0.080400
H243       H        0.426857        0.924800        0.211728        0.114900
H244       H        0.490595        0.940190        0.213588        0.117600
H245       H        0.479864        0.914379        0.241497        0.080600
C246       C        0.447583        0.876820        0.262654       -0.110600
C247       C        0.442600        0.864358        0.280360       -0.103500
C248       C        0.431498        0.865776        0.296456       -0.012500
C249       C        0.424852        0.879263        0.294305       -0.114400
C250       C        0.429660        0.891542        0.276646       -0.098500
H251       H        0.456405        0.875731        0.250510        0.080600
H252       H        0.447929        0.854099        0.281800        0.117600
H253       H        0.416097        0.880432        0.306478        0.114800
H254       H        0.424816        0.902226        0.275693        0.080500
C255       C        0.487432        0.042330        0.234451       -0.110500
C256       C        0.507830        0.052552        0.243197        0.060800
C257       C        0.521977        0.048269        0.235520       -0.098200
C258       C        0.515760        0.033754        0.219687       -0.114600
C259       C        0.495140        0.023044        0.211198       -0.012500
C260       C        0.481103        0.027667        0.218664       -0.103500
C261       C        0.514000        0.066790        0.260991        0.061100
H262       H        0.537873        0.056148        0.241864        0.080400
H263       H        0.527012        0.030665        0.214219        0.114900
H264       H        0.465126        0.019704        0.212439        0.117600
H265       H        0.476174        0.045220        0.240281        0.080600
C266       C        0.509569        0.082119        0.261393       -0.110600
C267       C        0.514732        0.094881        0.278659       -0.103500
C268       C        0.524125        0.092290        0.295860       -0.012500
C269       C        0.528865        0.077228        0.295291       -0.114400
C270       C        0.523912        0.064653        0.278023       -0.097600
H271       H        0.502092        0.084167        0.248368        0.080600
H272       H        0.510862        0.106350        0.278867        0.117600
H273       H        0.536271        0.075111        0.308346        0.114800
H274       H        0.527307        0.052826        0.278184        0.080500
C275       C        0.494043        0.061121        0.058052       -0.110500
C276       C        0.508946        0.067856        0.074023        0.060800
C277       C        0.528760        0.087666        0.072284       -0.098200
C278       C        0.533795        0.100162        0.054633       -0.114600
C279       C        0.519168        0.092981        0.038379       -0.012500
C280       C        0.499117        0.073544        0.040420       -0.103500
C281       C        0.504082        0.053679        0.091886        0.061100
H282       H        0.540434        0.093334        0.084470        0.080400
H283       H        0.549415        0.115032        0.053294        0.114900
H284       H        0.487548        0.067796        0.028114        0.117600
H285       H        0.478743        0.045851        0.058864        0.080600
C286       C        0.483704        0.042043        0.100696       -0.110600
C287       C        0.478536        0.027404        0.116418       -0.103500
C288       C        0.493652        0.024011        0.123729       -0.012500
C289       C        0.514254        0.036089        0.115237       -0.114400
C290       C        0.519388        0.050757        0.099499       -0.098500
H291       H        0.471708        0.044211        0.095303        0.080600
H292       H        0.462567        0.018509        0.122713        0.117600
H293       H        0.526284        0.033900        0.120532        0.114800
H294       H        0.535138        0.059335        0.092798        0.080500
C295       C        0.581729        0.239927        0.323757       -0.110500
C296       C        0.590050        0.229315        0.332157        0.060800
C297       C        0.610496        0.241199        0.007503       -0.098200
C298       C        0.622461        0.263375        0.007831       -0.114600
C299       C        0.614436        0.274198        0.332376       -0.012500
C300       C        0.593883        0.262163        0.323673       -0.103500
C301       C        0.577559        0.205871        0.331779        0.061100
H302       H        0.617049        0.233241        0.014293        0.080400
H303       H        0.637939        0.272051        0.015170        0.114900
H304       H        0.587349        0.269938        0.316449        0.117600
H305       H        0.566017        0.230978        0.316856        0.080600
C306       C        0.557162        0.193390        0.007174       -0.110600
C307       C        0.545745        0.171209        0.007479       -0.103500
C308       C        0.554375        0.161228        0.331962       -0.012500
C309       C        0.574592        0.173702        0.322893       -0.114400
C310       C        0.586197        0.195869        0.322997       -0.098500
H311       H        0.550316        0.200869        0.014099        0.080600
H312       H        0.530130        0.161773        0.014485        0.117600
H313       H        0.581508        0.166229        0.316099        0.114800
H314       H        0.601881        0.205266        0.316129        0.080500
C315       C        0.597175        0.349909        0.018084       -0.110500
C316       C        0.599612        0.363200        0.001699        0.060800
C317       C        0.612615        0.365945        0.318457       -0.098200
C318       C        0.622944        0.355822        0.318337       -0.114600
C319       C        0.620145        0.342368        0.001196       -0.012500
C320       C        0.607148        0.339411        0.017704       -0.103500
C321       C        0.588511        0.373959        0.001749        0.061100
H322       H        0.614500        0.375576        0.305339        0.080400
H323       H        0.632744        0.358038        0.305363        0.114900
H324       H        0.604973        0.329161        0.030385        0.117600
H325       H        0.587728        0.347754        0.031317        0.080600
C326       C        0.568359        0.364174        0.010941       -0.110600
C327       C        0.557946        0.374232        0.010878       -0.103500
C328       C        0.567211        0.394031        0.001244       -0.012500
C329       C        0.587176        0.403833        0.325281       -0.114400
C330       C        0.597841        0.394036        0.325729       -0.098500
H331       H        0.560417        0.348558        0.017874        0.080600
H332       H        0.542436        0.366407        0.017980        0.117600
H333       H        0.594624        0.419254        0.317985        0.114800
H334       H        0.613516        0.402340        0.318947        0.080500
C335       C        0.920058        0.470535        0.232294       -0.110500
C336       C        0.909186        0.450250        0.241353        0.060800
C337       C        0.912890        0.435560        0.234049       -0.098200
C338       C        0.927603        0.441243        0.218370       -0.114600
C339       C        0.938943        0.461787        0.209659       -0.012500
C340       C        0.934756        0.476257        0.216672       -0.103500
C341       C        0.895004        0.444935        0.259142        0.061100
H342       H        0.904900        0.419898        0.240934        0.080400
H343       H        0.930431        0.429716        0.213283        0.114900
H344       H        0.943066        0.492147        0.210186        0.117600
H345       H        0.917253        0.482046        0.237417        0.080600
C346       C        0.901328        0.459901        0.274739       -0.110600
C347       C        0.888754        0.454738        0.292102       -0.103500
C348       C        0.869576        0.434497        0.294302       -0.012500
C349       C        0.862875        0.419670        0.278502       -0.114400
C350       C        0.875537        0.424819        0.261086       -0.098500
H351       H        0.916349        0.475423        0.273794        0.080600
H352       H        0.894121        0.466481        0.304026        0.117600
H353       H        0.848196        0.403921        0.279962        0.114800
H354       H        0.870200        0.413073        0.249185        0.080500
C355       C        0.880049        0.448885        0.070790       -0.110500
C356       C        0.894327        0.443100        0.072645        0.060800
C357       C        0.895637        0.431860        0.056660       -0.098200
C358       C        0.883275        0.426847        0.039051       -0.114600
C359       C        0.869288        0.432917        0.037003       -0.012500
C360       C        0.867512        0.443706        0.053130       -0.103500
C361       C        0.908430        0.449233        0.090782        0.061100
H362       H        0.906676        0.427434        0.057548        0.080400
H363       H        0.884729        0.418339        0.026855        0.114900
H364       H        0.856875        0.448604        0.051770        0.117600
H365       H        0.878640        0.457420        0.082976        0.080600
C366       C        0.919539        0.469932        0.098651       -0.110600
C367       C        0.934386        0.476231        0.114491       -0.103500
C368       C        0.938386        0.461900        0.122820       -0.012500
C369       C        0.926672        0.440964        0.115328       -0.114400
C370       C        0.911906        0.434745        0.099520       -0.098500
H371       H        0.917277        0.481452        0.092039        0.080600
H372       H        0.943079        0.492444        0.119976        0.117600
H373       H        0.929189        0.429452        0.121523        0.114800
H374       H        0.903295        0.418596        0.093941        0.080500
C375       C        0.765636        0.376886        0.014260       -0.110500
C376       C        0.755292        0.379722        0.331390        0.060800
C377       C        0.767863        0.394156        0.315640       -0.098200
C378       C        0.790071        0.405382        0.316095       -0.114600
C379       C        0.800342        0.402130        0.332048       -0.012500
C380       C        0.787768        0.387682        0.014432       -0.103500
C381       C        0.731548        0.367511        0.330878        0.061100
H382       H        0.760571        0.396598        0.302738        0.080400
H383       H        0.799193        0.416671        0.303923        0.114900
H384       H        0.794969        0.384402        0.026782        0.117600
H385       H        0.756663        0.366340        0.026939        0.080600
C386       C        0.718732        0.346913        0.005994       -0.110600
C387       C        0.696559        0.335624        0.006040       -0.103500
C388       C        0.686408        0.344274        0.330420       -0.012500
C389       C        0.699174        0.364706        0.321596       -0.114400
C390       C        0.721425        0.376254        0.322026       -0.098500
H391       H        0.725784        0.339359        0.012534        0.080600
H392       H        0.687385        0.320168        0.013404        0.117600
H393       H        0.691994        0.371802        0.314272        0.114800
H394       H        0.730662        0.392166        0.315643        0.080500
C395       C        0.519689        0.417994        0.072147       -0.110500
C396       C        0.524035        0.438366        0.073407        0.060800
C397       C        0.534707        0.452776        0.057143       -0.098200
C398       C        0.540459        0.446821        0.039793       -0.114600
C399       C        0.535716        0.426343        0.038303       -0.012500
C400       C        0.525603        0.412071        0.054764       -0.103500
C401       C        0.516871        0.444532        0.091181        0.061100
H402       H        0.538054        0.468483        0.057587        0.080400
H403       H        0.548454        0.458151        0.027353        0.114900
H404       H        0.521741        0.396174        0.053863        0.117600
H405       H        0.511655        0.406669        0.084569        0.080600
C406       C        0.496222        0.430573        0.099092       -0.110600
C407       C        0.488872        0.437121        0.114666       -0.103500
C408       C        0.502079        0.457798        0.122700       -0.012500
C409       C        0.522977        0.471509        0.115124       -0.114400
C410       C        0.530246        0.464943        0.099563       -0.098500
H411       H        0.485528        0.414828        0.092735        0.080600
H412       H        0.472715        0.426139        0.120197        0.117600
H413       H        0.533652        0.487474        0.121074        0.114800
H414       H        0.546340        0.475895        0.093935        0.080500
C415       C        0.528613        0.462971        0.234015       -0.110500
C416       C        0.514731        0.442267        0.241898        0.060800
C417       C        0.494322        0.428875        0.233253       -0.098200
C418       C        0.487692        0.436167        0.217453       -0.114600
C419       C        0.501343        0.457097        0.209872       -0.012500
C420       C        0.522008        0.470330        0.218193       -0.103500
C421       C        0.520978        0.435072        0.259900        0.061100
H422       H        0.483419        0.412745        0.238847        0.080400
H423       H        0.471736        0.425497        0.211286        0.114900
H424       H        0.532923        0.486518        0.212673        0.117600
H425       H        0.544339        0.473699        0.240571        0.080600
C426       C        0.541570        0.439840        0.261641       -0.110600
C427       C        0.547605        0.434031        0.279292       -0.103500
C428       C        0.533219        0.423578        0.295538       -0.012500
C429       C        0.512511        0.418354        0.293547       -0.114400
C430       C        0.506451        0.424017        0.275939       -0.098500
H431       H        0.553000        0.448166        0.249408        0.080600
H432       H        0.563681        0.438283        0.280582        0.117600
H433       H        0.501098        0.410100        0.305821        0.114800
H434       H        0.490572        0.420334        0.275144        0.080500
C435       C        0.467794        0.527824        0.232042       -0.110500
C436       C        0.447325        0.514570        0.240509        0.060800
C437       C        0.433247        0.493981        0.232686       -0.098200
C438       C        0.439727        0.486576        0.217104       -0.114600
C439       C        0.460457        0.499668        0.208970       -0.012500
C440       C        0.474292        0.520501        0.216472       -0.103500
C441       C        0.441213        0.521791        0.258274        0.061100
H442       H        0.417459        0.483373        0.239113        0.080400
H443       H        0.428669        0.470469        0.211631        0.114900
H444       H        0.490301        0.531071        0.210443        0.117600
H445       H        0.478844        0.543868        0.237606        0.080600
C446       C        0.455662        0.532382        0.274483       -0.110600
C447       C        0.449744        0.538186        0.291827       -0.103500
C448       C        0.429266        0.533577        0.293366       -0.012500
C449       C        0.414962        0.523549        0.276955       -0.114400
C450       C        0.420847        0.517585        0.259580       -0.098500
H451       H        0.471366        0.535627        0.274001        0.080600
H452       H        0.461104        0.546120        0.304222        0.117600
H453       H        0.399066        0.519793        0.277885        0.114800
H454       H        0.409497        0.509621        0.247197        0.080500
C455       C        0.431458        0.492361        0.098732       -0.110500
C456       C        0.444964        0.512709        0.089998        0.060800
C457       C        0.465694        0.526513        0.097854       -0.098200
C458       C        0.472986        0.519876        0.113710       -0.114600
C459       C        0.459653        0.499248        0.122089       -0.012500
C460       C        0.438678        0.485699        0.114571       -0.103500
C461       C        0.437868        0.518963        0.071923        0.061100
H462       H        0.476502        0.542199        0.091241        0.080400
H463       H        0.489204        0.530728        0.119195        0.114900
H464       H        0.427917        0.469785        0.120796        0.117600
H465       H        0.415300        0.481527        0.093164        0.080600
C466       C        0.426861        0.504477        0.055924       -0.110600
C467       C        0.421284        0.510541        0.038257       -0.103500
C468       C        0.426545        0.531208        0.036165       -0.012500
C469       C        0.436966        0.545558        0.052365       -0.114400
C470       C        0.442689        0.539520        0.070072       -0.098500
H471       H        0.423140        0.488624        0.056808        0.080600
H472       H        0.413047        0.499156        0.026025        0.117600
H473       H        0.441246        0.561603        0.051004        0.114800
H474       H        0.450981        0.550918        0.082271        0.080500
O475       O        0.486695        0.504241        0.478102       -0.731600
O476       O        0.506639        0.484072        0.520252       -0.741400
O477       O        0.506690        0.484213        0.478527       -0.627600
O478       O        0.486861        0.504176        0.519685       -0.711700
O479       O        0.455077        0.472668        0.519897       -0.707200
O480       O        0.475038        0.452609        0.478418       -0.619800
O481       O        0.474884        0.452554        0.520168       -0.744800
O482       O        0.455012        0.472647        0.478288       -0.732600
Cu483     Cu        0.497836        0.495277        0.499128        1.045600
Cu484     Cu        0.463887        0.461502        0.499184        1.043300
C485       C        0.467578        0.491664        0.471596        0.930400
C486       C        0.493884        0.465060        0.526943        0.921800
C487       C        0.494129        0.465252        0.471944        0.843200
C488       C        0.467849        0.491683        0.526352        0.905900
C489       C        0.823973        0.413435        0.665482        0.029100
C490       C        0.835394        0.419076        0.350772       -0.132400
C491       C        0.857413        0.428656        0.350926        0.004100
C492       C        0.868264        0.433630        0.665664       -0.117600
C493       C        0.857416        0.428704        0.646971        0.029100
C494       C        0.835240        0.418229        0.646954       -0.111800
H495       H        0.827214        0.415746        0.365214        0.085000
H496       H        0.885314        0.441237        0.665757        0.060300
H497       H        0.826864        0.413833        0.632462        0.058800
C498       C        0.556051        0.404475        0.334232        0.029100
C499       C        0.550888        0.409574        0.648804       -0.132400
C500       C        0.539912        0.419123        0.648410        0.004100
C501       C        0.534989        0.424347        0.333605       -0.117600
C502       C        0.540442        0.419787        0.352435        0.029100
C503       C        0.550582        0.409397        0.352671       -0.111800
H504       H        0.554766        0.405442        0.634586        0.085000
H505       H        0.526851        0.432063        0.333370        0.060300
H506       H        0.554905        0.405823        0.367134        0.058800
C507       C        0.662674        0.332115        0.664103        0.029100
C508       C        0.649832        0.309762        0.663370       -0.132400
C509       C        0.627572        0.297904        0.665558        0.004100
C510       C        0.618060        0.308830        0.334277       -0.117600
C511       C        0.630465        0.331100        0.333846        0.029100
C512       C        0.652686        0.342632        0.665705       -0.111800
H513       H        0.657174        0.301525        0.660733        0.085000
H514       H        0.600978        0.300114        0.336064        0.060300
H515       H        0.662087        0.359799        0.666396        0.058800
C516       C        0.542537        0.137840        0.665831        0.029100
C517       C        0.535858        0.126859        0.351293       -0.132400
C518       C        0.525371        0.104736        0.351993        0.004100
C519       C        0.521492        0.093691        0.333690       -0.117600
C520       C        0.528049        0.104414        0.648155        0.029100
C521       C        0.538555        0.126531        0.647636       -0.111800
H522       H        0.539080        0.135572        0.365357        0.085000
H523       H        0.513556        0.076636        0.334142        0.060300
H524       H        0.543870        0.134981        0.633141        0.058800
O525       O        0.452164        0.954480        0.479686       -0.731600
O526       O        0.469171        0.996506        0.521640       -0.741400
O527       O        0.468665        0.996819        0.479916       -0.627600
O528       O        0.452488        0.954235        0.521257       -0.711700
O529       O        0.485395        0.961961        0.521227       -0.707200
O530       O        0.501672        0.004853        0.479539       -0.619800
O531       O        0.502048        0.004180        0.521317       -0.744800
O532       O        0.485179        0.962494        0.479660       -0.732600
Cu533     Cu        0.459468        0.975244        0.500624        1.045600
Cu534     Cu        0.494743        0.983669        0.500408        1.043300
C535       C        0.465997        0.951694        0.473128        0.930400
C536       C        0.488360        0.006980        0.528221        0.921800
C537       C        0.487710        0.007673        0.473138        0.843200
C538       C        0.466256        0.951246        0.527839        0.905900
O539       O        0.965447        0.487807        0.478732       -0.731600
O540       O        0.008233        0.504601        0.520516       -0.741400
O541       O        0.008090        0.505211        0.478742       -0.627600
O542       O        0.965754        0.487459        0.520292       -0.711700
O543       O        0.958378        0.454772        0.520336       -0.707200
O544       O        0.001027        0.472674        0.478468       -0.619800
O545       O        0.000827        0.471915        0.520216       -0.744800
O546       O        0.958331        0.455234        0.478748       -0.732600
Cu547     Cu        0.987155        0.497423        0.499572        1.045600
Cu548     Cu        0.979396        0.462503        0.499420        1.043300
C549       C        0.954954        0.468719        0.472204        0.930400
C550       C        0.011269        0.490852        0.527076        0.921800
C551       C        0.011376        0.491862        0.471973        0.843200
C552       C        0.955279        0.468338        0.526928        0.905900
C553       C        0.407526        0.554076        0.664087        0.029100
C554       C        0.412606        0.548896        0.349518       -0.132400
C555       C        0.422106        0.537880        0.349933        0.004100
C556       C        0.427290        0.532905        0.664744       -0.117600
C557       C        0.422742        0.538356        0.645903        0.029100
C558       C        0.412408        0.548556        0.645655       -0.111800
H559       H        0.408500        0.552805        0.363734        0.085000
H560       H        0.434967        0.524730        0.664991        0.060300
H561       H        0.408860        0.552892        0.631184        0.058800
C562       C        0.302605        0.627845        0.666085        0.029100
C563       C        0.313149        0.617899        0.664054       -0.132400
C564       C        0.335469        0.629806        0.664829        0.004100
C565       C        0.347426        0.651953        0.333455       -0.117600
C566       C        0.337224        0.662162        0.335129        0.029100
C567       C        0.314910        0.650044        0.335220       -0.111800
H568       H        0.304094        0.600870        0.662025        0.085000
H569       H        0.364672        0.661237        0.333711        0.060300
H570       H        0.307224        0.658076        0.337072        0.058800
C571       C        0.142465        0.546636        0.333528        0.029100
C572       C        0.131436        0.542964        0.351915       -0.132400
C573       C        0.109319        0.532845        0.351765        0.004100
C574       C        0.098316        0.526377        0.666404       -0.117600
C575       C        0.109072        0.529926        0.647922        0.029100
C576       C        0.131196        0.540041        0.648247       -0.111800
H577       H        0.140098        0.548158        0.366277        0.085000
H578       H        0.081257        0.518689        0.666231        0.060300
H579       H        0.139679        0.542975        0.634037        0.058800
C580       C        0.413576        0.821392        0.335205        0.029100
C581       C        0.418651        0.832336        0.649758       -0.132400
C582       C        0.427668        0.854194        0.649326        0.004100
C583       C        0.432466        0.865150        0.334493       -0.117600
C584       C        0.427935        0.854543        0.353349        0.029100
C585       C        0.418077        0.832525        0.353608       -0.111800
H586       H        0.414726        0.823676        0.635551        0.085000
H587       H        0.439624        0.882070        0.334195        0.060300
H588       H        0.414411        0.824122        0.368084        0.058800
C589       C        0.374648        0.720176        0.653811       -0.110500
C590       C        0.371848        0.730265        0.336682        0.060800
C591       C        0.358106        0.717594        0.352820       -0.098200
C592       C        0.346999        0.695466        0.352427       -0.114600
C593       C        0.349780        0.685576        0.336169       -0.012500
C594       C        0.363885        0.698085        0.653684       -0.103500
C595       C        0.382790        0.753778        0.336512        0.061100
H596       H        0.355939        0.724755        0.365811        0.080400
H597       H        0.336257        0.685994        0.364830        0.114900
H598       H        0.365990        0.690619        0.640901        0.117600
H599       H        0.384696        0.729257        0.640914        0.080600
C600       C        0.403107        0.767506        0.660997       -0.110600
C601       C        0.413028        0.789482        0.660370       -0.103500
C602       C        0.403077        0.798210        0.335640       -0.012500
C603       C        0.383007        0.784723        0.344705       -0.114400
C604       C        0.372851        0.762727        0.344941       -0.098500
H605       H        0.411480        0.761318        0.654756        0.080600
H606       H        0.428640        0.799769        0.653490        0.117600
H607       H        0.375057        0.791264        0.351233        0.114800
H608       H        0.357032        0.752731        0.351403        0.080500
C609       C        0.201047        0.589124        0.342278       -0.110500
C610       C        0.210501        0.580030        0.666584        0.060800
C611       C        0.197471        0.559735        0.657901       -0.098200
C612       C        0.175294        0.548864        0.657904       -0.114600
C613       C        0.165856        0.557935        0.333686       -0.012500
C614       C        0.178879        0.578058        0.342688       -0.103500
C615       C        0.233949        0.591900        0.666005        0.061100
H616       H        0.204521        0.552540        0.650793        0.080400
H617       H        0.165437        0.533319        0.650935        0.114900
H618       H        0.171834        0.585319        0.349674        0.117600
H619       H        0.210872        0.604735        0.349117        0.080600
C620       C        0.246327        0.612338        0.657356       -0.110600
C621       C        0.268524        0.623772        0.656997       -0.103500
C622       C        0.278870        0.615207        0.665721       -0.012500
C623       C        0.266333        0.594638        0.341004       -0.114400
C624       C        0.244080        0.583024        0.340952       -0.098500
H625       H        0.238741        0.619320        0.650662        0.080600
H626       H        0.277586        0.639290        0.649739        0.117600
H627       H        0.273727        0.587695        0.348199        0.114800
H628       H        0.234749        0.567314        0.347838        0.080500
C629       C        0.369266        0.610731        0.347031       -0.110500
C630       C        0.366669        0.598051        0.663613        0.060800
C631       C        0.353697        0.596105        0.647134       -0.098200
C632       C        0.343430        0.606313        0.647553       -0.114600
C633       C        0.346305        0.619050        0.664205       -0.012500
C634       C        0.359382        0.621293        0.347195       -0.103500
C635       C        0.377318        0.586844        0.663448        0.061100
H636       H        0.351662        0.586909        0.633779        0.080400
H637       H        0.333484        0.604579        0.634765        0.114900
H638       H        0.361535        0.630900        0.360269        0.117600
H639       H        0.378635        0.612228        0.360224        0.080600
C640       C        0.397272        0.595856        0.339657       -0.110600
C641       C        0.406969        0.585099        0.340003       -0.103500
C642       C        0.397202        0.565358        0.663755       -0.012500
C643       C        0.377537        0.556424        0.653909       -0.114400
C644       C        0.367572        0.566930        0.653940       -0.098500
H645       H        0.405559        0.611356        0.346676        0.080600
H646       H        0.422291        0.592303        0.347461        0.117600
H647       H        0.369729        0.541088        0.646583        0.114800
H648       H        0.352049        0.559237        0.646835        0.080500
C649       C        0.045595        0.487411        0.566742       -0.110500
C650       C        0.057202        0.507853        0.575227        0.060800
C651       C        0.054208        0.522984        0.567293       -0.098200
C652       C        0.039519        0.517625        0.551525       -0.114600
C653       C        0.027518        0.496980        0.543304       -0.012500
C654       C        0.030953        0.482027        0.550978       -0.103500
C655       C        0.071482        0.512987        0.593042        0.061100
H656       H        0.062763        0.538778        0.573746        0.080400
H657       H        0.037260        0.529510        0.545947        0.114900
H658       H        0.022083        0.466026        0.544910        0.117600
H659       H        0.047808        0.475542        0.572403        0.080600
C660       C        0.064789        0.498373        0.609292       -0.110600
C661       C        0.077400        0.503635        0.626789       -0.103500
C662       C        0.096995        0.523589        0.628412       -0.012500
C663       C        0.104099        0.537948        0.611904       -0.114400
C664       C        0.091402        0.532728        0.594393       -0.098500
H665       H        0.049436        0.483139        0.608768        0.080600
H666       H        0.071702        0.492267        0.639291        0.117600
H667       H        0.119098        0.553484        0.612912        0.114800
H668       H        0.097026        0.544178        0.581985        0.080500
C669       C        0.069993        0.528989        0.389202       -0.110500
C670       C        0.072001        0.518762        0.406035        0.060800
C671       C        0.087243        0.514184        0.405338       -0.098200
C672       C        0.099965        0.519419        0.387956       -0.114600
C673       C        0.097445        0.529065        0.370935       -0.012500
C674       C        0.082547        0.534037        0.371829       -0.103500
C675       C        0.057634        0.512310        0.423867        0.061100
H676       H        0.089216        0.506477        0.418199        0.080400
H677       H        0.111293        0.515350        0.387491        0.114900
H678       H        0.080490        0.541633        0.358908        0.117600
H679       H        0.058238        0.532506        0.389241        0.080600
C680       C        0.053098        0.526188        0.431686       -0.110600
C681       C        0.038379        0.519658        0.447475       -0.103500
C682       C        0.027728        0.498994        0.455794       -0.012500
C683       C        0.032641        0.485242        0.448235       -0.114400
C684       C        0.047483        0.491875        0.432475       -0.098500
H685       H        0.060921        0.542115        0.425473        0.080600
H686       H        0.035102        0.530721        0.453013        0.117600
H687       H        0.024761        0.469242        0.454329        0.114800
H688       H        0.050549        0.480807        0.426546        0.080500
C689       C        0.433626        0.909084        0.433014       -0.110500
C690       C        0.448727        0.906035        0.425429        0.060800
C691       C        0.469169        0.917392        0.434206       -0.098200
C692       C        0.474633        0.931932        0.449830       -0.114600
C693       C        0.459744        0.935487        0.457106       -0.012500
C694       C        0.439056        0.923655        0.448680       -0.103500
C695       C        0.443641        0.892012        0.407646        0.061100
H696       H        0.480996        0.915084        0.428859        0.080400
H697       H        0.490645        0.940620        0.456106        0.114900
H698       H        0.427201        0.925972        0.453990        0.117600
H699       H        0.417822        0.900683        0.426355        0.080600
C700       C        0.423832        0.872189        0.406014       -0.110600
C701       C        0.418883        0.859612        0.388640       -0.103500
C702       C        0.433584        0.866759        0.372565       -0.012500
C703       C        0.453527        0.886329        0.374438       -0.114400
C704       C        0.458502        0.898815        0.391767       -0.098500
H705       H        0.412186        0.866496        0.418139        0.080600
H706       H        0.403369        0.844611        0.387444        0.117600
H707       H        0.465193        0.892044        0.362314        0.114800
H708       H        0.473783        0.914108        0.392488        0.080500
C709       C        0.468128        0.916308        0.568148       -0.110500
C710       C        0.447285        0.904766        0.575917        0.060800
C711       C        0.432518        0.907832        0.567101       -0.098200
C712       C        0.438588        0.922605        0.551313       -0.114600
C713       C        0.459647        0.934731        0.543911       -0.012500
C714       C        0.474275        0.931158        0.552324       -0.103500
C715       C        0.441274        0.890651        0.594051        0.061100
H716       H        0.416265        0.898897        0.572607        0.080400
H717       H        0.426857        0.924800        0.545061        0.114900
H718       H        0.490595        0.940190        0.546921        0.117600
H719       H        0.479864        0.914379        0.574831        0.080600
C720       C        0.447583        0.876820        0.595987       -0.110600
C721       C        0.442600        0.864358        0.613694       -0.103500
C722       C        0.431498        0.865776        0.629789       -0.012500
C723       C        0.424852        0.879263        0.627638       -0.114400
C724       C        0.429660        0.891542        0.609979       -0.098500
H725       H        0.456405        0.875731        0.583843        0.080600
H726       H        0.447929        0.854099        0.615134        0.117600
H727       H        0.416097        0.880432        0.639812        0.114800
H728       H        0.424816        0.902226        0.609026        0.080500
C729       C        0.487432        0.042330        0.567785       -0.110500
C730       C        0.507830        0.052552        0.576530        0.060800
C731       C        0.521977        0.048269        0.568853       -0.098200
C732       C        0.515760        0.033754        0.553020       -0.114600
C733       C        0.495140        0.023044        0.544531       -0.012500
C734       C        0.481103        0.027667        0.551997       -0.103500
C735       C        0.514000        0.066790        0.594325        0.061100
H736       H        0.537873        0.056148        0.575197        0.080400
H737       H        0.527012        0.030665        0.547552        0.114900
H738       H        0.465126        0.019704        0.545772        0.117600
H739       H        0.476174        0.045220        0.573614        0.080600
C740       C        0.509569        0.082119        0.594726       -0.110600
C741       C        0.514732        0.094881        0.611993       -0.103500
C742       C        0.524125        0.092290        0.629194       -0.012500
C743       C        0.528865        0.077228        0.628624       -0.114400
C744       C        0.523912        0.064653        0.611357       -0.097600
H745       H        0.502092        0.084167        0.581701        0.080600
H746       H        0.510862        0.106350        0.612201        0.117600
H747       H        0.536271        0.075111        0.641679        0.114800
H748       H        0.527307        0.052826        0.611518        0.080500
C749       C        0.494043        0.061121        0.391385       -0.110500
C750       C        0.508946        0.067856        0.407356        0.060800
C751       C        0.528760        0.087666        0.405617       -0.098200
C752       C        0.533795        0.100162        0.387967       -0.114600
C753       C        0.519168        0.092981        0.371712       -0.012500
C754       C        0.499117        0.073544        0.373753       -0.103500
C755       C        0.504082        0.053679        0.425219        0.061100
H756       H        0.540434        0.093334        0.417803        0.080400
H757       H        0.549415        0.115032        0.386627        0.114900
H758       H        0.487548        0.067796        0.361447        0.117600
H759       H        0.478743        0.045851        0.392197        0.080600
C760       C        0.483704        0.042043        0.434029       -0.110600
C761       C        0.478536        0.027404        0.449752       -0.103500
C762       C        0.493652        0.024011        0.457062       -0.012500
C763       C        0.514254        0.036089        0.448570       -0.114400
C764       C        0.519388        0.050757        0.432832       -0.098500
H765       H        0.471708        0.044211        0.428636        0.080600
H766       H        0.462567        0.018509        0.456046        0.117600
H767       H        0.526284        0.033900        0.453865        0.114800
H768       H        0.535138        0.059335        0.426131        0.080500
C769       C        0.581729        0.239927        0.657091       -0.110500
C770       C        0.590050        0.229315        0.665490        0.060800
C771       C        0.610496        0.241199        0.340837       -0.098200
C772       C        0.622461        0.263375        0.341164       -0.114600
C773       C        0.614436        0.274198        0.665709       -0.012500
C774       C        0.593883        0.262163        0.657007       -0.103500
C775       C        0.577559        0.205871        0.665112        0.061100
H776       H        0.617049        0.233241        0.347626        0.080400
H777       H        0.637939        0.272051        0.348503        0.114900
H778       H        0.587349        0.269938        0.649782        0.117600
H779       H        0.566017        0.230978        0.650189        0.080600
C780       C        0.557162        0.193390        0.340507       -0.110600
C781       C        0.545745        0.171209        0.340812       -0.103500
C782       C        0.554375        0.161228        0.665296       -0.012500
C783       C        0.574592        0.173702        0.656226       -0.114400
C784       C        0.586197        0.195869        0.656330       -0.098500
H785       H        0.550316        0.200869        0.347433        0.080600
H786       H        0.530130        0.161773        0.347819        0.117600
H787       H        0.581508        0.166229        0.649432        0.114800
H788       H        0.601881        0.205266        0.649463        0.080500
C789       C        0.597175        0.349909        0.351417       -0.110500
C790       C        0.599612        0.363200        0.335032        0.060800
C791       C        0.612615        0.365945        0.651791       -0.098200
C792       C        0.622944        0.355822        0.651670       -0.114600
C793       C        0.620145        0.342368        0.334530       -0.012500
C794       C        0.607148        0.339411        0.351038       -0.103500
C795       C        0.588511        0.373959        0.335082        0.061100
H796       H        0.614500        0.375576        0.638673        0.080400
H797       H        0.632744        0.358038        0.638696        0.114900
H798       H        0.604973        0.329161        0.363719        0.117600
H799       H        0.587728        0.347754        0.364650        0.080600
C800       C        0.568359        0.364174        0.344274       -0.110600
C801       C        0.557946        0.374232        0.344212       -0.103500
C802       C        0.567211        0.394031        0.334577       -0.012500
C803       C        0.587176        0.403833        0.658614       -0.114400
C804       C        0.597841        0.394036        0.659063       -0.098500
H805       H        0.560417        0.348558        0.351208        0.080600
H806       H        0.542436        0.366407        0.351313        0.117600
H807       H        0.594624        0.419254        0.651319        0.114800
H808       H        0.613516        0.402340        0.652280        0.080500
C809       C        0.920058        0.470535        0.565627       -0.110500
C810       C        0.909186        0.450250        0.574687        0.060800
C811       C        0.912890        0.435560        0.567382       -0.098200
C812       C        0.927603        0.441243        0.551704       -0.114600
C813       C        0.938943        0.461787        0.542992       -0.012500
C814       C        0.934756        0.476257        0.550005       -0.103500
C815       C        0.895004        0.444935        0.592475        0.061100
H816       H        0.904900        0.419898        0.574268        0.080400
H817       H        0.930431        0.429716        0.546616        0.114900
H818       H        0.943066        0.492147        0.543519        0.117600
H819       H        0.917253        0.482046        0.570750        0.080600
C820       C        0.901328        0.459901        0.608072       -0.110600
C821       C        0.888754        0.454738        0.625435       -0.103500
C822       C        0.869576        0.434497        0.627636       -0.012500
C823       C        0.862875        0.419670        0.611835       -0.114400
C824       C        0.875537        0.424819        0.594419       -0.098500
H825       H        0.916349        0.475423        0.607127        0.080600
H826       H        0.894121        0.466481        0.637359        0.117600
H827       H        0.848196        0.403921        0.613295        0.114800
H828       H        0.870200        0.413073        0.582519        0.080500
C829       C        0.880049        0.448885        0.404123       -0.110500
C830       C        0.894327        0.443100        0.405979        0.060800
C831       C        0.895637        0.431860        0.389993       -0.098200
C832       C        0.883275        0.426847        0.372384       -0.114600
C833       C        0.869288        0.432917        0.370336       -0.012500
C834       C        0.867512        0.443706        0.386464       -0.103500
C835       C        0.908430        0.449233        0.424115        0.061100
H836       H        0.906676        0.427434        0.390882        0.080400
H837       H        0.884729        0.418339        0.360188        0.114900
H838       H        0.856875        0.448604        0.385104        0.117600
H839       H        0.878640        0.457420        0.416309        0.080600
C840       C        0.919539        0.469932        0.431985       -0.110600
C841       C        0.934386        0.476231        0.447824       -0.103500
C842       C        0.938386        0.461900        0.456153       -0.012500
C843       C        0.926672        0.440964        0.448661       -0.114400
C844       C        0.911906        0.434745        0.432854       -0.098500
H845       H        0.917277        0.481452        0.425373        0.080600
H846       H        0.943079        0.492444        0.453310        0.117600
H847       H        0.929189        0.429452        0.454856        0.114800
H848       H        0.903295        0.418596        0.427274        0.080500
C849       C        0.765636        0.376886        0.347593       -0.110500
C850       C        0.755292        0.379722        0.664723        0.060800
C851       C        0.767863        0.394156        0.648974       -0.098200
C852       C        0.790071        0.405382        0.649428       -0.114600
C853       C        0.800342        0.402130        0.665381       -0.012500
C854       C        0.787768        0.387682        0.347766       -0.103500
C855       C        0.731548        0.367511        0.664211        0.061100
H856       H        0.760571        0.396598        0.636071        0.080400
H857       H        0.799193        0.416671        0.637256        0.114900
H858       H        0.794969        0.384402        0.360116        0.117600
H859       H        0.756663        0.366340        0.360272        0.080600
C860       C        0.718732        0.346913        0.339327       -0.110600
C861       C        0.696559        0.335624        0.339373       -0.103500
C862       C        0.686408        0.344274        0.663753       -0.012500
C863       C        0.699174        0.364706        0.654929       -0.114400
C864       C        0.721425        0.376254        0.655359       -0.098500
H865       H        0.725784        0.339359        0.345868        0.080600
H866       H        0.687385        0.320168        0.346737        0.117600
H867       H        0.691994        0.371802        0.647606        0.114800
H868       H        0.730662        0.392166        0.648977        0.080500
C869       C        0.519689        0.417994        0.405481       -0.110500
C870       C        0.524035        0.438366        0.406741        0.060800
C871       C        0.534707        0.452776        0.390477       -0.098200
C872       C        0.540459        0.446821        0.373127       -0.114600
C873       C        0.535716        0.426343        0.371637       -0.012500
C874       C        0.525603        0.412071        0.388097       -0.103500
C875       C        0.516871        0.444532        0.424514        0.061100
H876       H        0.538054        0.468483        0.390920        0.080400
H877       H        0.548454        0.458151        0.360687        0.114900
H878       H        0.521741        0.396174        0.387197        0.117600
H879       H        0.511655        0.406669        0.417902        0.080600
C880       C        0.496222        0.430573        0.432425       -0.110600
C881       C        0.488872        0.437121        0.447999       -0.103500
C882       C        0.502079        0.457798        0.456033       -0.012500
C883       C        0.522977        0.471509        0.448457       -0.114400
C884       C        0.530246        0.464943        0.432896       -0.098500
H885       H        0.485528        0.414828        0.426068        0.080600
H886       H        0.472715        0.426139        0.453530        0.117600
H887       H        0.533652        0.487474        0.454408        0.114800
H888       H        0.546340        0.475895        0.427269        0.080500
C889       C        0.528613        0.462971        0.567348       -0.110500
C890       C        0.514731        0.442267        0.575231        0.060800
C891       C        0.494322        0.428875        0.566586       -0.098200
C892       C        0.487692        0.436167        0.550786       -0.114600
C893       C        0.501343        0.457097        0.543205       -0.012500
C894       C        0.522008        0.470330        0.551526       -0.103500
C895       C        0.520978        0.435072        0.593233        0.061100
H896       H        0.483419        0.412745        0.572181        0.080400
H897       H        0.471736        0.425497        0.544620        0.114900
H898       H        0.532923        0.486518        0.546006        0.117600
H899       H        0.544339        0.473699        0.573904        0.080600
C900       C        0.541570        0.439840        0.594975       -0.110600
C901       C        0.547605        0.434031        0.612625       -0.103500
C902       C        0.533219        0.423578        0.628872       -0.012500
C903       C        0.512511        0.418354        0.626880       -0.114400
C904       C        0.506451        0.424017        0.609273       -0.098500
H905       H        0.553000        0.448166        0.582741        0.080600
H906       H        0.563681        0.438283        0.613915        0.117600
H907       H        0.501098        0.410100        0.639154        0.114800
H908       H        0.490572        0.420334        0.608477        0.080500
C909       C        0.467794        0.527824        0.565376       -0.110500
C910       C        0.447325        0.514570        0.573842        0.060800
C911       C        0.433247        0.493981        0.566019       -0.098200
C912       C        0.439727        0.486576        0.550438       -0.114600
C913       C        0.460457        0.499668        0.542303       -0.012500
C914       C        0.474292        0.520501        0.549806       -0.103500
C915       C        0.441213        0.521791        0.591607        0.061100
H916       H        0.417459        0.483373        0.572446        0.080400
H917       H        0.428669        0.470469        0.544964        0.114900
H918       H        0.490301        0.531071        0.543776        0.117600
H919       H        0.478844        0.543868        0.570940        0.080600
C920       C        0.455662        0.532382        0.607817       -0.110600
C921       C        0.449744        0.538186        0.625160       -0.103500
C922       C        0.429266        0.533577        0.626700       -0.012500
C923       C        0.414962        0.523549        0.610288       -0.114400
C924       C        0.420847        0.517585        0.592913       -0.098500
H925       H        0.471366        0.535627        0.607334        0.080600
H926       H        0.461104        0.546120        0.637556        0.117600
H927       H        0.399066        0.519793        0.611219        0.114800
H928       H        0.409497        0.509621        0.580531        0.080500
C929       C        0.431458        0.492361        0.432066       -0.110500
C930       C        0.444964        0.512709        0.423331        0.060800
C931       C        0.465694        0.526513        0.431188       -0.098200
C932       C        0.472986        0.519876        0.447044       -0.114600
C933       C        0.459653        0.499248        0.455422       -0.012500
C934       C        0.438678        0.485699        0.447905       -0.103500
C935       C        0.437868        0.518963        0.405256        0.061100
H936       H        0.476502        0.542199        0.424574        0.080400
H937       H        0.489204        0.530728        0.452528        0.114900
H938       H        0.427917        0.469785        0.454129        0.117600
H939       H        0.415300        0.481527        0.426497        0.080600
C940       C        0.426861        0.504477        0.389258       -0.110600
C941       C        0.421284        0.510541        0.371590       -0.103500
C942       C        0.426545        0.531208        0.369498       -0.012500
C943       C        0.436966        0.545558        0.385698       -0.114400
C944       C        0.442689        0.539520        0.403405       -0.098500
H945       H        0.423140        0.488624        0.390141        0.080600
H946       H        0.413047        0.499156        0.359358        0.117600
H947       H        0.441246        0.561603        0.384338        0.114800
H948       H        0.450981        0.550918        0.415604        0.080500
O949       O        0.486695        0.504241        0.811435       -0.731600
O950       O        0.506639        0.484072        0.853585       -0.741400
O951       O        0.506690        0.484213        0.811861       -0.627600
O952       O        0.486861        0.504176        0.853018       -0.711700
O953       O        0.455077        0.472668        0.853231       -0.707200
O954       O        0.475038        0.452609        0.811751       -0.619800
O955       O        0.474884        0.452554        0.853501       -0.744800
O956       O        0.455012        0.472647        0.811621       -0.732600
Cu957     Cu        0.497836        0.495277        0.832461        1.045600
Cu958     Cu        0.463887        0.461502        0.832518        1.043300
C959       C        0.467578        0.491664        0.804930        0.930400
C960       C        0.493884        0.465060        0.860276        0.921800
C961       C        0.494129        0.465252        0.805277        0.843200
C962       C        0.467849        0.491683        0.859685        0.905900
C963       C        0.823973        0.413435        0.998816        0.029100
C964       C        0.835394        0.419076        0.684106       -0.132400
C965       C        0.857413        0.428656        0.684260        0.004100
C966       C        0.868264        0.433630        0.998997       -0.117600
C967       C        0.857416        0.428704        0.980304        0.029100
C968       C        0.835240        0.418229        0.980287       -0.111800
H969       H        0.827214        0.415746        0.698547        0.085000
H970       H        0.885314        0.441237        0.999090        0.060300
H971       H        0.826864        0.413833        0.965795        0.058800
C972       C        0.556051        0.404475        0.667565        0.029100
C973       C        0.550888        0.409574        0.982137       -0.132400
C974       C        0.539912        0.419123        0.981743        0.004100
C975       C        0.534989        0.424347        0.666938       -0.117600
C976       C        0.540442        0.419787        0.685768        0.029100
C977       C        0.550582        0.409397        0.686004       -0.111800
H978       H        0.554766        0.405442        0.967919        0.085000
H979       H        0.526851        0.432063        0.666703        0.060300
H980       H        0.554905        0.405823        0.700467        0.058800
C981       C        0.662674        0.332115        0.997436        0.029100
C982       C        0.649832        0.309762        0.996703       -0.132400
C983       C        0.627572        0.297904        0.998891        0.004100
C984       C        0.618060        0.308830        0.667610       -0.117600
C985       C        0.630465        0.331100        0.667180        0.029100
C986       C        0.652686        0.342632        0.999038       -0.111800
H987       H        0.657174        0.301525        0.994067        0.085000
H988       H        0.600978        0.300114        0.669397        0.060300
H989       H        0.662087        0.359799        0.999729        0.058800
C990       C        0.542537        0.137840        0.999164        0.029100
C991       C        0.535858        0.126859        0.684626       -0.132400
C992       C        0.525371        0.104736        0.685326        0.004100
C993       C        0.521492        0.093691        0.667023       -0.117600
C994       C        0.528049        0.104414        0.981489        0.029100
C995       C        0.538555        0.126531        0.980969       -0.111800
H996       H        0.539080        0.135572        0.698690        0.085000
H997       H        0.513556        0.076636        0.667475        0.060300
H998       H        0.543870        0.134981        0.966475        0.058800
O999       O        0.452164        0.954480        0.813019       -0.731600
O1000      O        0.469171        0.996506        0.854974       -0.741400
O1001      O        0.468665        0.996819        0.813249       -0.627600
O1002      O        0.452488        0.954235        0.854590       -0.711700
O1003      O        0.485395        0.961961        0.854561       -0.707200
O1004      O        0.501672        0.004853        0.812873       -0.619800
O1005      O        0.502048        0.004180        0.854650       -0.744800
O1006      O        0.485179        0.962494        0.812993       -0.732600
Cu1007    Cu        0.459468        0.975244        0.833957        1.045600
Cu1008    Cu        0.494743        0.983669        0.833741        1.043300
C1009      C        0.465997        0.951694        0.806462        0.930400
C1010      C        0.488360        0.006980        0.861554        0.921800
C1011      C        0.487710        0.007673        0.806471        0.843200
C1012      C        0.466256        0.951246        0.861173        0.905900
O1013      O        0.965447        0.487807        0.812066       -0.731600
O1014      O        0.008233        0.504601        0.853849       -0.741400
O1015      O        0.008090        0.505211        0.812075       -0.627600
O1016      O        0.965754        0.487459        0.853626       -0.711700
O1017      O        0.958378        0.454772        0.853670       -0.707200
O1018      O        0.001027        0.472674        0.811801       -0.619800
O1019      O        0.000827        0.471915        0.853549       -0.744800
O1020      O        0.958331        0.455234        0.812081       -0.732600
Cu1021    Cu        0.987155        0.497423        0.832905        1.045600
Cu1022    Cu        0.979396        0.462503        0.832753        1.043300
C1023      C        0.954954        0.468719        0.805537        0.930400
C1024      C        0.011269        0.490852        0.860409        0.921800
C1025      C        0.011376        0.491862        0.805307        0.843200
C1026      C        0.955279        0.468338        0.860261        0.905900
C1027      C        0.407526        0.554076        0.997420        0.029100
C1028      C        0.412606        0.548896        0.682851       -0.132400
C1029      C        0.422106        0.537880        0.683267        0.004100
C1030      C        0.427290        0.532905        0.998077       -0.117600
C1031      C        0.422742        0.538356        0.979236        0.029100
C1032      C        0.412408        0.548556        0.978988       -0.111800
H1033      H        0.408500        0.552805        0.697068        0.085000
H1034      H        0.434967        0.524730        0.998325        0.060300
H1035      H        0.408860        0.552892        0.964518        0.058800
C1036      C        0.302605        0.627845        0.999418        0.029100
C1037      C        0.313149        0.617899        0.997387       -0.132400
C1038      C        0.335469        0.629806        0.998163        0.004100
C1039      C        0.347426        0.651953        0.666788       -0.117600
C1040      C        0.337224        0.662162        0.668463        0.029100
C1041      C        0.314910        0.650044        0.668553       -0.111800
H1042      H        0.304094        0.600870        0.995358        0.085000
H1043      H        0.364672        0.661237        0.667045        0.060300
H1044      H        0.307224        0.658076        0.670405        0.058800
C1045      C        0.142465        0.546636        0.666861        0.029100
C1046      C        0.131436        0.542964        0.685248       -0.132400
C1047      C        0.109319        0.532845        0.685098        0.004100
C1048      C        0.098316        0.526377        0.999738       -0.117600
C1049      C        0.109072        0.529926        0.981255        0.029100
C1050      C        0.131196        0.540041        0.981580       -0.111800
H1051      H        0.140098        0.548158        0.699610        0.085000
H1052      H        0.081257        0.518689        0.999564        0.060300
H1053      H        0.139679        0.542975        0.967370        0.058800
C1054      C        0.413576        0.821392        0.668538        0.029100
C1055      C        0.418651        0.832336        0.983091       -0.132400
C1056      C        0.427668        0.854194        0.982660        0.004100
C1057      C        0.432466        0.865150        0.667826       -0.117600
C1058      C        0.427935        0.854543        0.686682        0.029100
C1059      C        0.418077        0.832525        0.686942       -0.111800
H1060      H        0.414726        0.823676        0.968884        0.085000
H1061      H        0.439624        0.882070        0.667528        0.060300
H1062      H        0.414411        0.824122        0.701417        0.058800
C1063      C        0.374648        0.720176        0.987144       -0.110500
C1064      C        0.371848        0.730265        0.670015        0.060800
C1065      C        0.358106        0.717594        0.686154       -0.098200
C1066      C        0.346999        0.695466        0.685760       -0.114600
C1067      C        0.349780        0.685576        0.669503       -0.012500
C1068      C        0.363885        0.698085        0.987017       -0.103500
C1069      C        0.382790        0.753778        0.669846        0.061100
H1070      H        0.355939        0.724755        0.699144        0.080400
H1071      H        0.336257        0.685994        0.698164        0.114900
H1072      H        0.365990        0.690619        0.974235        0.117600
H1073      H        0.384696        0.729257        0.974247        0.080600
C1074      C        0.403107        0.767506        0.994330       -0.110600
C1075      C        0.413028        0.789482        0.993703       -0.103500
C1076      C        0.403077        0.798210        0.668974       -0.012500
C1077      C        0.383007        0.784723        0.678038       -0.114400
C1078      C        0.372851        0.762727        0.678274       -0.098500
H1079      H        0.411480        0.761318        0.988090        0.080600
H1080      H        0.428640        0.799769        0.986824        0.117600
H1081      H        0.375057        0.791264        0.684566        0.114800
H1082      H        0.357032        0.752731        0.684736        0.080500
C1083      C        0.201047        0.589124        0.675611       -0.110500
C1084      C        0.210501        0.580030        0.999918        0.060800
C1085      C        0.197471        0.559735        0.991235       -0.098200
C1086      C        0.175294        0.548864        0.991237       -0.114600
C1087      C        0.165856        0.557935        0.667020       -0.012500
C1088      C        0.178879        0.578058        0.676021       -0.103500
C1089      C        0.233949        0.591900        0.999338        0.061100
H1090      H        0.204521        0.552540        0.984126        0.080400
H1091      H        0.165437        0.533319        0.984269        0.114900
H1092      H        0.171834        0.585319        0.683007        0.117600
H1093      H        0.210872        0.604735        0.682450        0.080600
C1094      C        0.246327        0.612338        0.990689       -0.110600
C1095      C        0.268524        0.623772        0.990331       -0.103500
C1096      C        0.278870        0.615207        0.999054       -0.012500
C1097      C        0.266333        0.594638        0.674337       -0.114400
C1098      C        0.244080        0.583024        0.674286       -0.098500
H1099      H        0.238741        0.619320        0.983995        0.080600
H1100      H        0.277586        0.639290        0.983072        0.117600
H1101      H        0.273727        0.587695        0.681533        0.114800
H1102      H        0.234749        0.567314        0.681171        0.080500
C1103      C        0.369266        0.610731        0.680364       -0.110500
C1104      C        0.366669        0.598051        0.996947        0.060800
C1105      C        0.353697        0.596105        0.980468       -0.098200
C1106      C        0.343430        0.606313        0.980886       -0.114600
C1107      C        0.346305        0.619050        0.997538       -0.012500
C1108      C        0.359382        0.621293        0.680528       -0.103500
C1109      C        0.377318        0.586844        0.996781        0.061100
H1110      H        0.351662        0.586909        0.967112        0.080400
H1111      H        0.333484        0.604579        0.968099        0.114900
H1112      H        0.361535        0.630900        0.693602        0.117600
H1113      H        0.378635        0.612228        0.693557        0.080600
C1114      C        0.397272        0.595856        0.672991       -0.110600
C1115      C        0.406969        0.585099        0.673337       -0.103500
C1116      C        0.397202        0.565358        0.997088       -0.012500
C1117      C        0.377537        0.556424        0.987242       -0.114400
C1118      C        0.367572        0.566930        0.987273       -0.098500
H1119      H        0.405559        0.611356        0.680010        0.080600
H1120      H        0.422291        0.592303        0.680795        0.117600
H1121      H        0.369729        0.541088        0.979917        0.114800
H1122      H        0.352049        0.559237        0.980168        0.080500
C1123      C        0.045595        0.487411        0.900076       -0.110500
C1124      C        0.057202        0.507853        0.908560        0.060800
C1125      C        0.054208        0.522984        0.900626       -0.098200
C1126      C        0.039519        0.517625        0.884858       -0.114600
C1127      C        0.027518        0.496980        0.876638       -0.012500
C1128      C        0.030953        0.482027        0.884312       -0.103500
C1129      C        0.071482        0.512987        0.926375        0.061100
H1130      H        0.062763        0.538778        0.907079        0.080400
H1131      H        0.037260        0.529510        0.879281        0.114900
H1132      H        0.022083        0.466026        0.878243        0.117600
H1133      H        0.047808        0.475542        0.905736        0.080600
C1134      C        0.064789        0.498373        0.942625       -0.110600
C1135      C        0.077400        0.503635        0.960123       -0.103500
C1136      C        0.096995        0.523589        0.961745       -0.012500
C1137      C        0.104099        0.537948        0.945238       -0.114400
C1138      C        0.091402        0.532728        0.927726       -0.098500
H1139      H        0.049436        0.483139        0.942101        0.080600
H1140      H        0.071702        0.492267        0.972624        0.117600
H1141      H        0.119098        0.553484        0.946245        0.114800
H1142      H        0.097026        0.544178        0.915318        0.080500
C1143      C        0.069993        0.528989        0.722535       -0.110500
C1144      C        0.072001        0.518762        0.739369        0.060800
C1145      C        0.087243        0.514184        0.738672       -0.098200
C1146      C        0.099965        0.519419        0.721289       -0.114600
C1147      C        0.097445        0.529065        0.704268       -0.012500
C1148      C        0.082547        0.534037        0.705162       -0.103500
C1149      C        0.057634        0.512310        0.757200        0.061100
H1150      H        0.089216        0.506477        0.751532        0.080400
H1151      H        0.111293        0.515350        0.720824        0.114900
H1152      H        0.080490        0.541633        0.692241        0.117600
H1153      H        0.058238        0.532506        0.722574        0.080600
C1154      C        0.053098        0.526188        0.765020       -0.110600
C1155      C        0.038379        0.519658        0.780808       -0.103500
C1156      C        0.027728        0.498994        0.789127       -0.012500
C1157      C        0.032641        0.485242        0.781568       -0.114400
C1158      C        0.047483        0.491875        0.765808       -0.098500
H1159      H        0.060921        0.542115        0.758806        0.080600
H1160      H        0.035102        0.530721        0.786347        0.117600
H1161      H        0.024761        0.469242        0.787662        0.114800
H1162      H        0.050549        0.480807        0.759880        0.080500
C1163      C        0.433626        0.909084        0.766347       -0.110500
C1164      C        0.448727        0.906035        0.758762        0.060800
C1165      C        0.469169        0.917392        0.767539       -0.098200
C1166      C        0.474633        0.931932        0.783163       -0.114600
C1167      C        0.459744        0.935487        0.790440       -0.012500
C1168      C        0.439056        0.923655        0.782014       -0.103500
C1169      C        0.443641        0.892012        0.740980        0.061100
H1170      H        0.480996        0.915084        0.762193        0.080400
H1171      H        0.490645        0.940620        0.789439        0.114900
H1172      H        0.427201        0.925972        0.787324        0.117600
H1173      H        0.417822        0.900683        0.759688        0.080600
C1174      C        0.423832        0.872189        0.739348       -0.110600
C1175      C        0.418883        0.859612        0.721974       -0.103500
C1176      C        0.433584        0.866759        0.705899       -0.012500
C1177      C        0.453527        0.886329        0.707771       -0.114400
C1178      C        0.458502        0.898815        0.725100       -0.098500
H1179      H        0.412186        0.866496        0.751472        0.080600
H1180      H        0.403369        0.844611        0.720778        0.117600
H1181      H        0.465193        0.892044        0.695647        0.114800
H1182      H        0.473783        0.914108        0.725822        0.080500
C1183      C        0.468128        0.916308        0.901482       -0.110500
C1184      C        0.447285        0.904766        0.909250        0.060800
C1185      C        0.432518        0.907832        0.900434       -0.098200
C1186      C        0.438588        0.922605        0.884647       -0.114600
C1187      C        0.459647        0.934731        0.877244       -0.012500
C1188      C        0.474275        0.931158        0.885657       -0.103500
C1189      C        0.441274        0.890651        0.927384        0.061100
H1190      H        0.416265        0.898897        0.905941        0.080400
H1191      H        0.426857        0.924800        0.878395        0.114900
H1192      H        0.490595        0.940190        0.880254        0.117600
H1193      H        0.479864        0.914379        0.908164        0.080600
C1194      C        0.447583        0.876820        0.929321       -0.110600
C1195      C        0.442600        0.864358        0.947027       -0.103500
C1196      C        0.431498        0.865776        0.963122       -0.012500
C1197      C        0.424852        0.879263        0.960971       -0.114400
C1198      C        0.429660        0.891542        0.943313       -0.098500
H1199      H        0.456405        0.875731        0.917176        0.080600
H1200      H        0.447929        0.854099        0.948467        0.117600
H1201      H        0.416097        0.880432        0.973145        0.114800
H1202      H        0.424816        0.902226        0.942359        0.080500
C1203      C        0.487432        0.042330        0.901118       -0.110500
C1204      C        0.507830        0.052552        0.909864        0.060800
C1205      C        0.521977        0.048269        0.902187       -0.098200
C1206      C        0.515760        0.033754        0.886354       -0.114600
C1207      C        0.495140        0.023044        0.877864       -0.012500
C1208      C        0.481103        0.027667        0.885330       -0.103500
C1209      C        0.514000        0.066790        0.927658        0.061100
H1210      H        0.537873        0.056148        0.908531        0.080400
H1211      H        0.527012        0.030665        0.880886        0.114900
H1212      H        0.465126        0.019704        0.879105        0.117600
H1213      H        0.476174        0.045220        0.906948        0.080600
C1214      C        0.509569        0.082119        0.928060       -0.110600
C1215      C        0.514732        0.094881        0.945326       -0.103500
C1216      C        0.524125        0.092290        0.962527       -0.012500
C1217      C        0.528865        0.077228        0.961957       -0.114400
C1218      C        0.523912        0.064653        0.944690       -0.097600
H1219      H        0.502092        0.084167        0.915035        0.080600
H1220      H        0.510862        0.106350        0.945534        0.117600
H1221      H        0.536271        0.075111        0.975012        0.114800
H1222      H        0.527307        0.052826        0.944851        0.080500
C1223      C        0.494043        0.061121        0.724718       -0.110500
C1224      C        0.508946        0.067856        0.740690        0.060800
C1225      C        0.528760        0.087666        0.738951       -0.098200
C1226      C        0.533795        0.100162        0.721300       -0.114600
C1227      C        0.519168        0.092981        0.705045       -0.012500
C1228      C        0.499117        0.073544        0.707087       -0.103500
C1229      C        0.504082        0.053679        0.758553        0.061100
H1230      H        0.540434        0.093334        0.751137        0.080400
H1231      H        0.549415        0.115032        0.719961        0.114900
H1232      H        0.487548        0.067796        0.694781        0.117600
H1233      H        0.478743        0.045851        0.725531        0.080600
C1234      C        0.483704        0.042043        0.767363       -0.110600
C1235      C        0.478536        0.027404        0.783085       -0.103500
C1236      C        0.493652        0.024011        0.790396       -0.012500
C1237      C        0.514254        0.036089        0.781903       -0.114400
C1238      C        0.519388        0.050757        0.766166       -0.098500
H1239      H        0.471708        0.044211        0.761969        0.080600
H1240      H        0.462567        0.018509        0.789380        0.117600
H1241      H        0.526284        0.033900        0.787199        0.114800
H1242      H        0.535138        0.059335        0.759465        0.080500
C1243      C        0.581729        0.239927        0.990424       -0.110500
C1244      C        0.590050        0.229315        0.998823        0.060800
C1245      C        0.610496        0.241199        0.674170       -0.098200
C1246      C        0.622461        0.263375        0.674497       -0.114600
C1247      C        0.614436        0.274198        0.999042       -0.012500
C1248      C        0.593883        0.262163        0.990340       -0.103500
C1249      C        0.577559        0.205871        0.998445        0.061100
H1250      H        0.617049        0.233241        0.680960        0.080400
H1251      H        0.637939        0.272051        0.681836        0.114900
H1252      H        0.587349        0.269938        0.983116        0.117600
H1253      H        0.566017        0.230978        0.983522        0.080600
C1254      C        0.557162        0.193390        0.673841       -0.110600
C1255      C        0.545745        0.171209        0.674145       -0.103500
C1256      C        0.554375        0.161228        0.998629       -0.012500
C1257      C        0.574592        0.173702        0.989559       -0.114400
C1258      C        0.586197        0.195869        0.989664       -0.098500
H1259      H        0.550316        0.200869        0.680766        0.080600
H1260      H        0.530130        0.161773        0.681152        0.117600
H1261      H        0.581508        0.166229        0.982765        0.114800
H1262      H        0.601881        0.205266        0.982796        0.080500
C1263      C        0.597175        0.349909        0.684750       -0.110500
C1264      C        0.599612        0.363200        0.668365        0.060800
C1265      C        0.612615        0.365945        0.985124       -0.098200
C1266      C        0.622944        0.355822        0.985003       -0.114600
C1267      C        0.620145        0.342368        0.667863       -0.012500
C1268      C        0.607148        0.339411        0.684371       -0.103500
C1269      C        0.588511        0.373959        0.668415        0.061100
H1270      H        0.614500        0.375576        0.972006        0.080400
H1271      H        0.632744        0.358038        0.972030        0.114900
H1272      H        0.604973        0.329161        0.697052        0.117600
H1273      H        0.587728        0.347754        0.697983        0.080600
C1274      C        0.568359        0.364174        0.677608       -0.110600
C1275      C        0.557946        0.374232        0.677545       -0.103500
C1276      C        0.567211        0.394031        0.667910       -0.012500
C1277      C        0.587176        0.403833        0.991948       -0.114400
C1278      C        0.597841        0.394036        0.992396       -0.098500
H1279      H        0.560417        0.348558        0.684541        0.080600
H1280      H        0.542436        0.366407        0.684647        0.117600
H1281      H        0.594624        0.419254        0.984652        0.114800
H1282      H        0.613516        0.402340        0.985613        0.080500
C1283      C        0.920058        0.470535        0.898960       -0.110500
C1284      C        0.909186        0.450250        0.908020        0.060800
C1285      C        0.912890        0.435560        0.900716       -0.098200
C1286      C        0.927603        0.441243        0.885037       -0.114600
C1287      C        0.938943        0.461787        0.876325       -0.012500
C1288      C        0.934756        0.476257        0.883339       -0.103500
C1289      C        0.895004        0.444935        0.925808        0.061100
H1290      H        0.904900        0.419898        0.907601        0.080400
H1291      H        0.930431        0.429716        0.879949        0.114900
H1292      H        0.943066        0.492147        0.876852        0.117600
H1293      H        0.917253        0.482046        0.904084        0.080600
C1294      C        0.901328        0.459901        0.941406       -0.110600
C1295      C        0.888754        0.454738        0.958769       -0.103500
C1296      C        0.869576        0.434497        0.960969       -0.012500
C1297      C        0.862875        0.419670        0.945169       -0.114400
C1298      C        0.875537        0.424819        0.927752       -0.098500
H1299      H        0.916349        0.475423        0.940461        0.080600
H1300      H        0.894121        0.466481        0.970693        0.117600
H1301      H        0.848196        0.403921        0.946629        0.114800
H1302      H        0.870200        0.413073        0.915852        0.080500
C1303      C        0.880049        0.448885        0.737457       -0.110500
C1304      C        0.894327        0.443100        0.739312        0.060800
C1305      C        0.895637        0.431860        0.723326       -0.098200
C1306      C        0.883275        0.426847        0.705717       -0.114600
C1307      C        0.869288        0.432917        0.703670       -0.012500
C1308      C        0.867512        0.443706        0.719797       -0.103500
C1309      C        0.908430        0.449233        0.757448        0.061100
H1310      H        0.906676        0.427434        0.724215        0.080400
H1311      H        0.884729        0.418339        0.693521        0.114900
H1312      H        0.856875        0.448604        0.718437        0.117600
H1313      H        0.878640        0.457420        0.749642        0.080600
C1314      C        0.919539        0.469932        0.765318       -0.110600
C1315      C        0.934386        0.476231        0.781158       -0.103500
C1316      C        0.938386        0.461900        0.789486       -0.012500
C1317      C        0.926672        0.440964        0.781995       -0.114400
C1318      C        0.911906        0.434745        0.766187       -0.098500
H1319      H        0.917277        0.481452        0.758706        0.080600
H1320      H        0.943079        0.492444        0.786643        0.117600
H1321      H        0.929189        0.429452        0.788190        0.114800
H1322      H        0.903295        0.418596        0.760608        0.080500
C1323      C        0.765636        0.376886        0.680926       -0.110500
C1324      C        0.755292        0.379722        0.998056        0.060800
C1325      C        0.767863        0.394156        0.982307       -0.098200
C1326      C        0.790071        0.405382        0.982762       -0.114600
C1327      C        0.800342        0.402130        0.998714       -0.012500
C1328      C        0.787768        0.387682        0.681099       -0.103500
C1329      C        0.731548        0.367511        0.997544        0.061100
H1330      H        0.760571        0.396598        0.969405        0.080400
H1331      H        0.799193        0.416671        0.970589        0.114900
H1332      H        0.794969        0.384402        0.693449        0.117600
H1333      H        0.756663        0.366340        0.693606        0.080600
C1334      C        0.718732        0.346913        0.672661       -0.110600
C1335      C        0.696559        0.335624        0.672707       -0.103500
C1336      C        0.686408        0.344274        0.997087       -0.012500
C1337      C        0.699174        0.364706        0.988263       -0.114400
C1338      C        0.721425        0.376254        0.988693       -0.098500
H1339      H        0.725784        0.339359        0.679201        0.080600
H1340      H        0.687385        0.320168        0.680071        0.117600
H1341      H        0.691994        0.371802        0.980939        0.114800
H1342      H        0.730662        0.392166        0.982310        0.080500
C1343      C        0.519689        0.417994        0.738814       -0.110500
C1344      C        0.524035        0.438366        0.740074        0.060800
C1345      C        0.534707        0.452776        0.723810       -0.098200
C1346      C        0.540459        0.446821        0.706460       -0.114600
C1347      C        0.535716        0.426343        0.704970       -0.012500
C1348      C        0.525603        0.412071        0.721430       -0.103500
C1349      C        0.516871        0.444532        0.757848        0.061100
H1350      H        0.538054        0.468483        0.724253        0.080400
H1351      H        0.548454        0.458151        0.694020        0.114900
H1352      H        0.521741        0.396174        0.720530        0.117600
H1353      H        0.511655        0.406669        0.751236        0.080600
C1354      C        0.496222        0.430573        0.765759       -0.110600
C1355      C        0.488872        0.437121        0.781333       -0.103500
C1356      C        0.502079        0.457798        0.789366       -0.012500
C1357      C        0.522977        0.471509        0.781790       -0.114400
C1358      C        0.530246        0.464943        0.766229       -0.098500
H1359      H        0.485528        0.414828        0.759401        0.080600
H1360      H        0.472715        0.426139        0.786864        0.117600
H1361      H        0.533652        0.487474        0.787741        0.114800
H1362      H        0.546340        0.475895        0.760602        0.080500
C1363      C        0.528613        0.462971        0.900681       -0.110500
C1364      C        0.514731        0.442267        0.908564        0.060800
C1365      C        0.494322        0.428875        0.899920       -0.098200
C1366      C        0.487692        0.436167        0.884120       -0.114600
C1367      C        0.501343        0.457097        0.876539       -0.012500
C1368      C        0.522008        0.470330        0.884860       -0.103500
C1369      C        0.520978        0.435072        0.926566        0.061100
H1370      H        0.483419        0.412745        0.905514        0.080400
H1371      H        0.471736        0.425497        0.877953        0.114900
H1372      H        0.532923        0.486518        0.879339        0.117600
H1373      H        0.544339        0.473699        0.907237        0.080600
C1374      C        0.541570        0.439840        0.928308       -0.110600
C1375      C        0.547605        0.434031        0.945958       -0.103500
C1376      C        0.533219        0.423578        0.962205       -0.012500
C1377      C        0.512511        0.418354        0.960214       -0.114400
C1378      C        0.506451        0.424017        0.942606       -0.098500
H1379      H        0.553000        0.448166        0.916075        0.080600
H1380      H        0.563681        0.438283        0.947248        0.117600
H1381      H        0.501098        0.410100        0.972487        0.114800
H1382      H        0.490572        0.420334        0.941811        0.080500
C1383      C        0.467794        0.527824        0.898709       -0.110500
C1384      C        0.447325        0.514570        0.907176        0.060800
C1385      C        0.433247        0.493981        0.899352       -0.098200
C1386      C        0.439727        0.486576        0.883771       -0.114600
C1387      C        0.460457        0.499668        0.875637       -0.012500
C1388      C        0.474292        0.520501        0.883139       -0.103500
C1389      C        0.441213        0.521791        0.924941        0.061100
H1390      H        0.417459        0.483373        0.905779        0.080400
H1391      H        0.428669        0.470469        0.878298        0.114900
H1392      H        0.490301        0.531071        0.877110        0.117600
H1393      H        0.478844        0.543868        0.904273        0.080600
C1394      C        0.455662        0.532382        0.941150       -0.110600
C1395      C        0.449744        0.538186        0.958493       -0.103500
C1396      C        0.429266        0.533577        0.960033       -0.012500
C1397      C        0.414962        0.523549        0.943622       -0.114400
C1398      C        0.420847        0.517585        0.926246       -0.098500
H1399      H        0.471366        0.535627        0.940668        0.080600
H1400      H        0.461104        0.546120        0.970889        0.117600
H1401      H        0.399066        0.519793        0.944552        0.114800
H1402      H        0.409497        0.509621        0.913864        0.080500
C1403      C        0.431458        0.492361        0.765399       -0.110500
C1404      C        0.444964        0.512709        0.756665        0.060800
C1405      C        0.465694        0.526513        0.764521       -0.098200
C1406      C        0.472986        0.519876        0.780377       -0.114600
C1407      C        0.459653        0.499248        0.788756       -0.012500
C1408      C        0.438678        0.485699        0.781238       -0.103500
C1409      C        0.437868        0.518963        0.738589        0.061100
H1410      H        0.476502        0.542199        0.757907        0.080400
H1411      H        0.489204        0.530728        0.785861        0.114900
H1412      H        0.427917        0.469785        0.787463        0.117600
H1413      H        0.415300        0.481527        0.759830        0.080600
C1414      C        0.426861        0.504477        0.722591       -0.110600
C1415      C        0.421284        0.510541        0.704924       -0.103500
C1416      C        0.426545        0.531208        0.702832       -0.012500
C1417      C        0.436966        0.545558        0.719031       -0.114400
C1418      C        0.442689        0.539520        0.736739       -0.098500
H1419      H        0.423140        0.488624        0.723474        0.080600
H1420      H        0.413047        0.499156        0.692692        0.117600
H1421      H        0.441246        0.561603        0.717671        0.114800
H1422      H        0.450981        0.550918        0.748938        0.080500
loop_
_geom_bond_atom_site_label_1
_geom_bond_atom_site_label_2
_geom_bond_distance
_ccdc_geom_bond_type
O1          Cu9   1.934   S
O1          C11   1.278   A
O2          Cu9   1.934   S
O2          C12   1.278   A
O3          Cu9   1.926   S
O3          C13   1.276   A
O4          Cu9   1.921   S
O4          C14   1.277   A
O5         Cu10   1.935   S
O5          C14   1.278   A
O6         Cu10    1.94   S
O6          C13   1.278   A
O7         Cu10   1.924   S
O7          C12   1.277   A
O8         Cu10   1.924   S
O8          C11   1.277   A
Cu9        Cu10   2.396   S
C11        C459   1.489   S
C12        C419   1.489   S
C13        C408   1.487   S
C14        C439   1.488   S
C15        C379   1.494   S
C15         C20   1.411   A
C15        C490   1.411   A
C16         C17   1.403   A
C16         H21   1.082   S
C16        C963  22.999   A
C17        C359   1.481   S
C17        C966   1.399   A
C18         C19   1.399   A
C18         H22   1.084   S
C18        C491   1.399   A
C19        C348   1.481   S
C19         C20   1.403   A
C20         H23   1.082   S
C24        C328   1.477   S
C24         C29   1.405   A
C24        C973   1.406   A
C25         C26   1.404   A
C25         H30   1.083   S
C25        C498   1.406   A
C26        C428   1.482   S
C26        C501   1.401   A
C27         C28   1.402   A
C27         H31   1.084   S
C27        C974  23.003   A
C28        C399   1.481   S
C28         C29   1.403   A
C29         H32   1.083   S
C33        C388   1.495   S
C33         C34   1.408   A
C33         C38   1.407   A
C34         C35   1.407   A
C34         H39   1.081   S
C35        C299   1.492   S
C35        C510   1.406   A
C36         C37   1.402   A
C36         H40   1.082   S
C36        C983  21.968   A
C37        C319   1.477   S
C37        C986   1.402   A
C38         H41   1.082   S
C38        C511   1.402   A
C42        C308   1.477   S
C42         C47   1.405   A
C42        C517   1.405   A
C43         C44   1.404   A
C43         H48   1.083   S
C43        C990  23.008   A
C44        C279   1.481   S
C44         C45   1.402   A
C45         H49   1.083   S
C45        C994   1.401   A
C46        C268    1.48   S
C46         C47   1.403   A
C46        C519   1.401   A
C47         H50   1.083   S
O51        Cu59   1.934   S
O51         C61   1.278   A
O52        Cu59   1.935   S
O52         C62   1.278   A
O53        Cu59   1.925   S
O53         C63   1.276   A
O54        Cu59    1.92   S
O54         C64   1.277   A
O55        Cu60   1.935   S
O55         C64   1.278   A
O56        Cu60   1.941   S
O56         C63   1.278   A
O57        Cu60    1.92   S
O57         C62   1.276   A
O58        Cu60   1.919   S
O58         C61   1.276   A
Cu59       Cu60   2.396   S
C61        C219   1.487   S
C62        C259   1.487   S
C63        C288   1.487   S
C64        C239   1.488   S
O65        Cu73   1.934   S
O65         C75   1.278   A
O66        Cu73   1.936   S
O66         C76   1.278   A
O67        Cu73   1.925   S
O67         C77   1.276   A
O68        Cu73    1.92   S
O68         C78   1.276   A
O69        Cu74   1.934   S
O69         C78   1.278   A
O70        Cu74    1.94   S
O70         C77   1.278   A
O71        Cu74   1.921   S
O71         C76   1.277   A
O72        Cu74   1.921   S
O72         C75   1.277   A
Cu73       Cu74   2.396   S
C75        C368   1.488   S
C76        C179   1.488   S
C77        C208   1.487   S
C78        C339   1.487   S
C79        C168   1.477   S
C79         C84   1.405   A
C79        C554   1.406   A
C80         C81   1.403   A
C80         H85   1.083   S
C80       C1027  23.003   A
C81        C468   1.482   S
C81       C1030   1.401   A
C82         C83   1.402   A
C82         H86   1.084   S
C82        C555   1.401   A
C83        C448   1.481   S
C83         C84   1.403   A
C84         H87   1.083   S
C88        C148   1.492   S
C88         C89   1.408   A
C88        C567   1.408   A
C89         C90   1.404   A
C89         H94   1.082   S
C90        C159   1.477   S
C90        C565   1.402   A
C91         C92   1.401   A
C91         H95   1.084   S
C91       C1038  21.957   A
C92        C119   1.477   S
C92         C93   1.402   A
C93         H96   1.082   S
C93       C1036   21.99   A
C97        C139   1.478   S
C97         C98   1.405   A
C97       C1050   1.405   A
C98         C99   1.403   A
C98        H103   1.083   S
C99        C199    1.48   S
C99       C1048   1.401   A
C100       C101   1.402   A
C100       H104   1.083   S
C100       C573   1.401   A
C101       C188   1.481   S
C101       C102   1.403   A
C102       H105   1.083   S
C102       C571   1.405   A
C106       C128   1.476   S
C106       C111   1.405   A
C106      C1055   1.405   A
C107       C108   1.403   A
C107       H112   1.083   S
C107       C580   1.405   A
C108       C248    1.48   S
C108       C583   1.401   A
C109       C110   1.401   A
C109       H113   1.084   S
C109      C1056  22.999   A
C110       C228   1.481   S
C110       C111   1.403   A
C111       H114   1.083   S
C115       C120   1.399   A
C115       H125   1.082   S
C115       C590   1.409   A
C116       C121   1.493   S
C116       C117    1.41   A
C116      C1063  22.861   A
C117       C118   1.399   A
C117       H122   1.082   S
C118       C119   1.401   A
C118       H123   1.084   S
C119      C1068   1.401   A
C120       H124   1.084   S
C120       C593   1.401   A
C121       C130   1.409   A
C121      C1074    1.41   A
C126       C127   1.399   A
C126       H131   1.082   S
C126       C595    1.41   A
C127       H132   1.083   S
C127       C602   1.401   A
C128       C129   1.401   A
C128      C1075  22.386   A
C129       C130   1.398   A
C129       H133   1.084   S
C130       H134   1.082   S
C135       C140   1.398   A
C135       H145   1.083   S
C135      C1084   1.404   A
C136       C141   1.478   S
C136       C137   1.404   A
C136       C609   1.404   A
C137       C138     1.4   A
C137       H142   1.083   S
C138       H143   1.083   S
C138       C613   1.404   A
C139       C140   1.403   A
C139      C1086  22.419   A
C140       H144   1.083   S
C141       C146   1.402   A
C141       C624   1.402   A
C146       C147   1.397   A
C146       H151   1.083   S
C147       C148   1.408   A
C147       H152   1.082   S
C148       C623   1.409   A
C149       C150     1.4   A
C149       H153   1.082   S
C149      C1096  22.366   A
C150       H154   1.083   S
C150      C1089  22.339   A
C155       C160   1.398   A
C155       H165   1.082   S
C155      C1104   1.409   A
C156       C161   1.494   S
C156       C157    1.41   A
C156       C629   1.409   A
C157       C158     1.4   A
C157       H162   1.082   S
C158       C159   1.401   A
C158       H163   1.083   S
C159       C634   1.401   A
C160       H164   1.084   S
C160      C1107  22.852   A
C161       C170   1.409   A
C161       C640    1.41   A
C166       C167   1.398   A
C166       H171   1.082   S
C166      C1109  22.428   A
C167       H172   1.083   S
C167      C1116   1.401   A
C168       C169   1.401   A
C168       C641   1.401   A
C169       C170   1.399   A
C169       H173   1.083   S
C170       H174   1.082   S
C175       C176   1.404   A
C175       C180   1.396   A
C175       H185   1.083   S
C176       C181   1.484   S
C176       C177   1.406   A
C177       C178   1.399   A
C177       H182   1.083   S
C178       C179   1.409   A
C178       H183   1.085   S
C179       C180   1.409   A
C180       H184   1.085   S
C181       C186   1.405   A
C181       C190   1.406   A
C186       C187   1.396   A
C186       H191   1.083   S
C187       C188   1.404   A
C187       H192   1.083   S
C188       C189   1.404   A
C189       C190     1.4   A
C189       H193   1.083   S
C190       H194   1.083   S
C195       C196   1.405   A
C195       C200   1.395   A
C195       H205   1.083   S
C196       C201   1.483   S
C196       C197   1.406   A
C197       C198   1.401   A
C197       H202   1.083   S
C198       C199   1.404   A
C198       H203   1.083   S
C199       C200   1.404   A
C200       H204   1.083   S
C201       C206   1.404   A
C201       C210   1.405   A
C206       C207   1.396   A
C206       H211   1.083   S
C207       C208   1.409   A
C207       H212   1.085   S
C208       C209   1.409   A
C209       C210   1.399   A
C209       H213   1.085   S
C210       H214   1.083   S
C215       C216   1.405   A
C215       C220   1.399   A
C215       H225   1.083   S
C216       C221   1.483   S
C216       C217   1.404   A
C217       C218   1.395   A
C217       H222   1.083   S
C218       C219   1.409   A
C218       H223   1.085   S
C219       C220   1.409   A
C220       H224   1.085   S
C221       C226   1.407   A
C221       C230   1.405   A
C226       C227   1.401   A
C226       H231   1.083   S
C227       C228   1.404   A
C227       H232   1.083   S
C228       C229   1.404   A
C229       C230   1.394   A
C229       H233   1.084   S
C230       H234   1.083   S
C235       C236   1.405   A
C235       C240     1.4   A
C235       H245   1.083   S
C236       C241   1.484   S
C236       C237   1.404   A
C237       C238   1.395   A
C237       H242   1.083   S
C238       C239   1.409   A
C238       H243   1.085   S
C239       C240   1.409   A
C240       H244   1.085   S
C241       C246   1.407   A
C241       C250   1.404   A
C246       C247   1.402   A
C246       H251   1.083   S
C247       C248   1.404   A
C247       H252   1.083   S
C248       C249   1.403   A
C249       C250   1.394   A
C249       H253   1.084   S
C250       H254   1.083   S
C255       C256   1.405   A
C255       C260   1.399   A
C255       H265   1.083   S
C256       C261   1.482   S
C256       C257   1.404   A
C257       C258   1.396   A
C257       H262   1.083   S
C258       C259   1.409   A
C258       H263   1.085   S
C259       C260   1.409   A
C260       H264   1.085   S
C261       C266   1.406   A
C261       C270   1.404   A
C266       C267   1.401   A
C266       H271   1.083   S
C267       C268   1.404   A
C267       H272   1.083   S
C268       C269   1.404   A
C269       C270   1.395   A
C269       H273   1.084   S
C270       H274   1.083   S
C275       C276   1.405   A
C275       C280   1.396   A
C275       H285   1.083   S
C276       C281   1.484   S
C276       C277   1.406   A
C277       C278     1.4   A
C277       H282   1.083   S
C278       C279   1.404   A
C278       H283   1.083   S
C279       C280   1.404   A
C280       H284   1.083   S
C281       C286   1.404   A
C281       C290   1.406   A
C286       C287   1.396   A
C286       H291   1.083   S
C287       C288   1.409   A
C287       H292   1.085   S
C288       C289   1.409   A
C289       C290   1.399   A
C289       H293   1.085   S
C290       H294   1.083   S
C295       C296   1.403   A
C295       C300     1.4   A
C295       H305   1.083   S
C296       C301   1.478   S
C296       C771   1.402   A
C297       C298   1.397   A
C297       H302   1.083   S
C297      C1244  22.374   A
C298       H303   1.082   S
C298      C1247   1.408   A
C299       C300   1.408   A
C299       C772   1.408   A
C300       H304   1.082   S
C301       C310   1.404   A
C301       C780   1.404   A
C306       C307     1.4   A
C306       H311   1.083   S
C306      C1249  22.384   A
C307       H312   1.083   S
C307      C1256   1.404   A
C308       C309   1.403   A
C308       C781   1.404   A
C309       C310   1.398   A
C309       H313   1.083   S
C310       H314   1.083   S
C315       C316    1.41   A
C315       C320     1.4   A
C315       H325   1.082   S
C316       C321   1.494   S
C316      C1265   1.409   A
C317       C318   1.398   A
C317       H322   1.082   S
C317       C790   1.409   A
C318       H323   1.084   S
C318       C793   1.401   A
C319       C320   1.401   A
C319      C1266  22.842   A
C320       H324   1.083   S
C321       C326   1.409   A
C321      C1278    1.41   A
C326       C327   1.399   A
C326       H331   1.082   S
C327       C328   1.401   A
C327       H332   1.083   S
C328      C1277   1.401   A
C329       C330   1.399   A
C329       H333   1.083   S
C329       C802   1.401   A
C330       H334   1.082   S
C330       C795    1.41   A
C335       C336   1.404   A
C335       C340   1.395   A
C335       H345   1.083   S
C336       C341   1.484   S
C336       C337   1.406   A
C337       C338   1.399   A
C337       H342   1.083   S
C338       C339   1.409   A
C338       H343   1.085   S
C339       C340   1.409   A
C340       H344   1.085   S
C341       C346   1.405   A
C341       C350   1.407   A
C346       C347   1.394   A
C346       H351   1.083   S
C347       C348   1.404   A
C347       H352   1.084   S
C348       C349   1.404   A
C349       C350   1.401   A
C349       H353   1.083   S
C350       H354   1.083   S
C355       C356   1.407   A
C355       C360   1.402   A
C355       H365   1.083   S
C356       C361   1.484   S
C356       C357   1.404   A
C357       C358   1.394   A
C357       H362   1.083   S
C358       C359   1.403   A
C358       H363   1.084   S
C359       C360   1.404   A
C360       H364   1.083   S
C361       C366   1.405   A
C361       C370   1.404   A
C366       C367     1.4   A
C366       H371   1.083   S
C367       C368   1.409   A
C367       H372   1.085   S
C368       C369   1.409   A
C369       C370   1.395   A
C369       H373   1.085   S
C370       H374   1.083   S
C375       C380   1.397   A
C375       H385   1.082   S
C375      C1324   1.408   A
C376       C381   1.495   S
C376       C377   1.407   A
C376       C849   1.408   A
C377       C378   1.399   A
C377       H382   1.082   S
C378       C379   1.407   A
C378       H383   1.082   S
C379       C854   1.406   A
C380       H384   1.082   S
C380      C1327  22.818   A
C381       C390   1.408   A
C381       C860   1.407   A
C386       C387   1.396   A
C386       H391   1.082   S
C386      C1329  22.355   A
C387       H392   1.082   S
C387      C1336   1.407   A
C388       C389   1.407   A
C388       C861   1.407   A
C389       C390     1.4   A
C389       H393   1.082   S
C390       H394   1.082   S
C395       C396   1.407   A
C395       C400   1.401   A
C395       H405   1.083   S
C396       C401   1.484   S
C396       C397   1.405   A
C397       C398   1.394   A
C397       H402   1.083   S
C398       C399   1.404   A
C398       H403   1.084   S
C399       C400   1.404   A
C400       H404   1.083   S
C401       C406   1.405   A
C401       C410   1.404   A
C406       C407     1.4   A
C406       H411   1.083   S
C407       C408   1.409   A
C407       H412   1.085   S
C408       C409   1.409   A
C409       C410   1.396   A
C409       H413   1.085   S
C410       H414   1.083   S
C415       C416   1.405   A
C415       C420   1.399   A
C415       H425   1.083   S
C416       C421   1.485   S
C416       C417   1.405   A
C417       C418   1.396   A
C417       H422   1.083   S
C418       C419   1.409   A
C418       H423   1.085   S
C419       C420   1.409   A
C420       H424   1.085   S
C421       C426   1.407   A
C421       C430   1.405   A
C426       C427   1.402   A
C426       H431   1.083   S
C427       C428   1.404   A
C427       H432   1.083   S
C428       C429   1.404   A
C429       C430   1.395   A
C429       H433   1.083   S
C430       H434   1.083   S
C435       C436   1.404   A
C435       C440   1.396   A
C435       H445   1.083   S
C436       C441   1.484   S
C436       C437   1.405   A
C437       C438     1.4   A
C437       H442   1.083   S
C438       C439   1.409   A
C438       H443   1.085   S
C439       C440   1.409   A
C440       H444   1.085   S
C441       C446   1.404   A
C441       C450   1.407   A
C446       C447   1.395   A
C446       H451   1.083   S
C447       C448   1.404   A
C447       H452   1.084   S
C448       C449   1.404   A
C449       C450   1.401   A
C449       H453   1.083   S
C450       H454   1.083   S
C455       C456   1.405   A
C455       C460   1.396   A
C455       H465   1.083   S
C456       C461   1.485   S
C456       C457   1.405   A
C457       C458   1.399   A
C457       H462   1.083   S
C458       C459   1.409   A
C458       H463   1.085   S
C459       C460   1.409   A
C460       H464   1.085   S
C461       C466   1.405   A
C461       C470   1.407   A
C466       C467   1.395   A
C466       H471   1.083   S
C467       C468   1.404   A
C467       H472   1.083   S
C468       C469   1.404   A
C469       C470   1.402   A
C469       H473   1.083   S
C470       H474   1.083   S
O475      Cu483   1.934   S
O475       C485   1.278   A
O476      Cu483   1.934   S
O476       C486   1.278   A
O477      Cu483   1.926   S
O477       C487   1.276   A
O478      Cu483   1.921   S
O478       C488   1.277   A
O479      Cu484   1.935   S
O479       C488   1.278   A
O480      Cu484    1.94   S
O480       C487   1.278   A
O481      Cu484   1.924   S
O481       C486   1.277   A
O482      Cu484   1.924   S
O482       C485   1.277   A
Cu483     Cu484   2.396   S
C485       C933   1.489   S
C486       C893   1.489   S
C487       C882   1.487   S
C488       C913   1.488   S
C489       C853   1.494   S
C489       C964   1.411   A
C489       C494   1.411   A
C490       C491   1.403   A
C490       H495   1.082   S
C491       C833   1.481   S
C492       C965   1.399   A
C492       C493   1.399   A
C492       H496   1.084   S
C493       C822   1.481   S
C493       C494   1.403   A
C494       H497   1.082   S
C498       C802   1.477   S
C498       C503   1.405   A
C499       C972   1.406   A
C499       C500   1.404   A
C499       H504   1.083   S
C500       C902   1.482   S
C500       C975   1.401   A
C501       C502   1.402   A
C501       H505   1.084   S
C502       C873   1.481   S
C502       C503   1.403   A
C503       H506   1.083   S
C507       C862   1.495   S
C507       C508   1.408   A
C507       C512   1.407   A
C508       C509   1.407   A
C508       H513   1.081   S
C509       C773   1.492   S
C509       C984   1.406   A
C510       C511   1.402   A
C510       H514   1.082   S
C511       C793   1.477   S
C512       C985   1.402   A
C512       H515   1.082   S
C516       C782   1.477   S
C516       C991   1.405   A
C516       C521   1.405   A
C517       C518   1.404   A
C517       H522   1.083   S
C518       C753   1.481   S
C518       C519   1.402   A
C519       H523   1.083   S
C520       C993   1.401   A
C520       C742    1.48   S
C520       C521   1.403   A
C521       H524   1.083   S
O525      Cu533   1.934   S
O525       C535   1.278   A
O526      Cu533   1.935   S
O526       C536   1.278   A
O527      Cu533   1.925   S
O527       C537   1.276   A
O528      Cu533    1.92   S
O528       C538   1.277   A
O529      Cu534   1.935   S
O529       C538   1.278   A
O530      Cu534   1.941   S
O530       C537   1.278   A
O531      Cu534    1.92   S
O531       C536   1.276   A
O532      Cu534   1.919   S
O532       C535   1.276   A
Cu533     Cu534   2.396   S
C535       C693   1.487   S
C536       C733   1.487   S
C537       C762   1.487   S
C538       C713   1.488   S
O539      Cu547   1.934   S
O539       C549   1.278   A
O540      Cu547   1.936   S
O540       C550   1.278   A
O541      Cu547   1.925   S
O541       C551   1.276   A
O542      Cu547    1.92   S
O542       C552   1.276   A
O543      Cu548   1.934   S
O543       C552   1.278   A
O544      Cu548    1.94   S
O544       C551   1.278   A
O545      Cu548   1.921   S
O545       C550   1.277   A
O546      Cu548   1.921   S
O546       C549   1.277   A
Cu547     Cu548   2.396   S
C549       C842   1.488   S
C550       C653   1.488   S
C551       C682   1.487   S
C552       C813   1.487   S
C553       C642   1.477   S
C553      C1028   1.406   A
C553       C558   1.405   A
C554       C555   1.403   A
C554       H559   1.083   S
C555       C942   1.482   S
C556      C1029   1.401   A
C556       C557   1.402   A
C556       H560   1.084   S
C557       C922   1.481   S
C557       C558   1.403   A
C558       H561   1.083   S
C562       C622   1.492   S
C562       C563   1.408   A
C562      C1041   1.408   A
C563       C564   1.404   A
C563       H568   1.082   S
C564       C633   1.477   S
C564      C1039   1.402   A
C565       C566   1.401   A
C565       H569   1.084   S
C566       C593   1.477   S
C566       C567   1.402   A
C567       H570   1.082   S
C571       C613   1.478   S
C571       C572   1.405   A
C572       C573   1.403   A
C572       H577   1.083   S
C573       C673    1.48   S
C574      C1047   1.401   A
C574       C575   1.402   A
C574       H578   1.083   S
C575       C662   1.481   S
C575       C576   1.403   A
C576      C1045   1.405   A
C576       H579   1.083   S
C580       C602   1.476   S
C580       C585   1.405   A
C581      C1054   1.405   A
C581       C582   1.403   A
C581       H586   1.083   S
C582       C722    1.48   S
C582      C1057   1.401   A
C583       C584   1.401   A
C583       H587   1.084   S
C584       C702   1.481   S
C584       C585   1.403   A
C585       H588   1.083   S
C589      C1064   1.409   A
C589       C594   1.399   A
C589       H599   1.082   S
C590       C595   1.493   S
C590       C591    1.41   A
C591       C592   1.399   A
C591       H596   1.082   S
C592       C593   1.401   A
C592       H597   1.084   S
C594      C1067   1.401   A
C594       H598   1.084   S
C595       C604   1.409   A
C600      C1069    1.41   A
C600       C601   1.399   A
C600       H605   1.082   S
C601      C1076   1.401   A
C601       H606   1.083   S
C602       C603   1.401   A
C603       C604   1.398   A
C603       H607   1.084   S
C604       H608   1.082   S
C609       C614   1.398   A
C609       H619   1.083   S
C610      C1083   1.404   A
C610       C615   1.478   S
C610       C611   1.404   A
C611       C612     1.4   A
C611       H616   1.083   S
C612      C1087   1.404   A
C612       H617   1.083   S
C613       C614   1.403   A
C614       H618   1.083   S
C615       C620   1.402   A
C615      C1098   1.402   A
C620       C621   1.397   A
C620       H625   1.083   S
C621       C622   1.408   A
C621       H626   1.082   S
C622      C1097   1.409   A
C623       C624     1.4   A
C623       H627   1.082   S
C624       H628   1.083   S
C629       C634   1.398   A
C629       H639   1.082   S
C630      C1103   1.409   A
C630       C635   1.494   S
C630       C631    1.41   A
C631       C632     1.4   A
C631       H636   1.082   S
C632       C633   1.401   A
C632       H637   1.083   S
C633      C1108   1.401   A
C634       H638   1.084   S
C635      C1114    1.41   A
C635       C644   1.409   A
C640       C641   1.398   A
C640       H645   1.082   S
C641       H646   1.083   S
C642      C1115   1.401   A
C642       C643   1.401   A
C643       C644   1.399   A
C643       H647   1.083   S
C644       H648   1.082   S
C649       C650   1.404   A
C649       C654   1.396   A
C649       H659   1.083   S
C650       C655   1.484   S
C650       C651   1.406   A
C651       C652   1.399   A
C651       H656   1.083   S
C652       C653   1.409   A
C652       H657   1.085   S
C653       C654   1.409   A
C654       H658   1.085   S
C655       C660   1.405   A
C655       C664   1.406   A
C660       C661   1.396   A
C660       H665   1.083   S
C661       C662   1.404   A
C661       H666   1.083   S
C662       C663   1.404   A
C663       C664     1.4   A
C663       H667   1.083   S
C664       H668   1.083   S
C669       C670   1.405   A
C669       C674   1.395   A
C669       H679   1.083   S
C670       C675   1.483   S
C670       C671   1.406   A
C671       C672   1.401   A
C671       H676   1.083   S
C672       C673   1.404   A
C672       H677   1.083   S
C673       C674   1.404   A
C674       H678   1.083   S
C675       C680   1.404   A
C675       C684   1.405   A
C680       C681   1.396   A
C680       H685   1.083   S
C681       C682   1.409   A
C681       H686   1.085   S
C682       C683   1.409   A
C683       C684   1.399   A
C683       H687   1.085   S
C684       H688   1.083   S
C689       C690   1.405   A
C689       C694   1.399   A
C689       H699   1.083   S
C690       C695   1.483   S
C690       C691   1.404   A
C691       C692   1.395   A
C691       H696   1.083   S
C692       C693   1.409   A
C692       H697   1.085   S
C693       C694   1.409   A
C694       H698   1.085   S
C695       C700   1.407   A
C695       C704   1.405   A
C700       C701   1.401   A
C700       H705   1.083   S
C701       C702   1.404   A
C701       H706   1.083   S
C702       C703   1.404   A
C703       C704   1.394   A
C703       H707   1.084   S
C704       H708   1.083   S
C709       C710   1.405   A
C709       C714     1.4   A
C709       H719   1.083   S
C710       C715   1.484   S
C710       C711   1.404   A
C711       C712   1.395   A
C711       H716   1.083   S
C712       C713   1.409   A
C712       H717   1.085   S
C713       C714   1.409   A
C714       H718   1.085   S
C715       C720   1.407   A
C715       C724   1.404   A
C720       C721   1.402   A
C720       H725   1.083   S
C721       C722   1.404   A
C721       H726   1.083   S
C722       C723   1.403   A
C723       C724   1.394   A
C723       H727   1.084   S
C724       H728   1.083   S
C729       C730   1.405   A
C729       C734   1.399   A
C729       H739   1.083   S
C730       C735   1.482   S
C730       C731   1.404   A
C731       C732   1.396   A
C731       H736   1.083   S
C732       C733   1.409   A
C732       H737   1.085   S
C733       C734   1.409   A
C734       H738   1.085   S
C735       C740   1.406   A
C735       C744   1.404   A
C740       C741   1.401   A
C740       H745   1.083   S
C741       C742   1.404   A
C741       H746   1.083   S
C742       C743   1.404   A
C743       C744   1.395   A
C743       H747   1.084   S
C744       H748   1.083   S
C749       C750   1.405   A
C749       C754   1.396   A
C749       H759   1.083   S
C750       C755   1.484   S
C750       C751   1.406   A
C751       C752     1.4   A
C751       H756   1.083   S
C752       C753   1.404   A
C752       H757   1.083   S
C753       C754   1.404   A
C754       H758   1.083   S
C755       C760   1.404   A
C755       C764   1.406   A
C760       C761   1.396   A
C760       H765   1.083   S
C761       C762   1.409   A
C761       H766   1.085   S
C762       C763   1.409   A
C763       C764   1.399   A
C763       H767   1.085   S
C764       H768   1.083   S
C769       C770   1.403   A
C769       C774     1.4   A
C769       H779   1.083   S
C770       C775   1.478   S
C770      C1245   1.402   A
C771       C772   1.397   A
C771       H776   1.083   S
C772       H777   1.082   S
C773      C1246   1.408   A
C773       C774   1.408   A
C774       H778   1.082   S
C775      C1254   1.404   A
C775       C784   1.404   A
C780       C781     1.4   A
C780       H785   1.083   S
C781       H786   1.083   S
C782      C1255   1.404   A
C782       C783   1.403   A
C783       C784   1.398   A
C783       H787   1.083   S
C784       H788   1.083   S
C789       C790    1.41   A
C789       C794     1.4   A
C789       H799   1.082   S
C790       C795   1.494   S
C791      C1264   1.409   A
C791       C792   1.398   A
C791       H796   1.082   S
C792      C1267   1.401   A
C792       H797   1.084   S
C793       C794   1.401   A
C794       H798   1.083   S
C795       C800   1.409   A
C800       C801   1.399   A
C800       H805   1.082   S
C801       C802   1.401   A
C801       H806   1.083   S
C803      C1276   1.401   A
C803       C804   1.399   A
C803       H807   1.083   S
C804      C1269    1.41   A
C804       H808   1.082   S
C809       C810   1.404   A
C809       C814   1.395   A
C809       H819   1.083   S
C810       C815   1.484   S
C810       C811   1.406   A
C811       C812   1.399   A
C811       H816   1.083   S
C812       C813   1.409   A
C812       H817   1.085   S
C813       C814   1.409   A
C814       H818   1.085   S
C815       C820   1.405   A
C815       C824   1.407   A
C820       C821   1.394   A
C820       H825   1.083   S
C821       C822   1.404   A
C821       H826   1.084   S
C822       C823   1.404   A
C823       C824   1.401   A
C823       H827   1.083   S
C824       H828   1.083   S
C829       C830   1.407   A
C829       C834   1.402   A
C829       H839   1.083   S
C830       C835   1.484   S
C830       C831   1.404   A
C831       C832   1.394   A
C831       H836   1.083   S
C832       C833   1.403   A
C832       H837   1.084   S
C833       C834   1.404   A
C834       H838   1.083   S
C835       C840   1.405   A
C835       C844   1.404   A
C840       C841     1.4   A
C840       H845   1.083   S
C841       C842   1.409   A
C841       H846   1.085   S
C842       C843   1.409   A
C843       C844   1.395   A
C843       H847   1.085   S
C844       H848   1.083   S
C849       C854   1.397   A
C849       H859   1.082   S
C850      C1323   1.408   A
C850       C855   1.495   S
C850       C851   1.407   A
C851       C852   1.399   A
C851       H856   1.082   S
C852       C853   1.407   A
C852       H857   1.082   S
C853      C1328   1.406   A
C854       H858   1.082   S
C855      C1334   1.407   A
C855       C864   1.408   A
C860       C861   1.396   A
C860       H865   1.082   S
C861       H866   1.082   S
C862      C1335   1.407   A
C862       C863   1.407   A
C863       C864     1.4   A
C863       H867   1.082   S
C864       H868   1.082   S
C869       C870   1.407   A
C869       C874   1.401   A
C869       H879   1.083   S
C870       C875   1.484   S
C870       C871   1.405   A
C871       C872   1.394   A
C871       H876   1.083   S
C872       C873   1.404   A
C872       H877   1.084   S
C873       C874   1.404   A
C874       H878   1.083   S
C875       C880   1.405   A
C875       C884   1.404   A
C880       C881     1.4   A
C880       H885   1.083   S
C881       C882   1.409   A
C881       H886   1.085   S
C882       C883   1.409   A
C883       C884   1.396   A
C883       H887   1.085   S
C884       H888   1.083   S
C889       C890   1.405   A
C889       C894   1.399   A
C889       H899   1.083   S
C890       C895   1.485   S
C890       C891   1.405   A
C891       C892   1.396   A
C891       H896   1.083   S
C892       C893   1.409   A
C892       H897   1.085   S
C893       C894   1.409   A
C894       H898   1.085   S
C895       C900   1.407   A
C895       C904   1.405   A
C900       C901   1.402   A
C900       H905   1.083   S
C901       C902   1.404   A
C901       H906   1.083   S
C902       C903   1.404   A
C903       C904   1.395   A
C903       H907   1.083   S
C904       H908   1.083   S
C909       C910   1.404   A
C909       C914   1.396   A
C909       H919   1.083   S
C910       C915   1.484   S
C910       C911   1.405   A
C911       C912     1.4   A
C911       H916   1.083   S
C912       C913   1.409   A
C912       H917   1.085   S
C913       C914   1.409   A
C914       H918   1.085   S
C915       C920   1.404   A
C915       C924   1.407   A
C920       C921   1.395   A
C920       H925   1.083   S
C921       C922   1.404   A
C921       H926   1.084   S
C922       C923   1.404   A
C923       C924   1.401   A
C923       H927   1.083   S
C924       H928   1.083   S
C929       C930   1.405   A
C929       C934   1.396   A
C929       H939   1.083   S
C930       C935   1.485   S
C930       C931   1.405   A
C931       C932   1.399   A
C931       H936   1.083   S
C932       C933   1.409   A
C932       H937   1.085   S
C933       C934   1.409   A
C934       H938   1.085   S
C935       C940   1.405   A
C935       C944   1.407   A
C940       C941   1.395   A
C940       H945   1.083   S
C941       C942   1.404   A
C941       H946   1.083   S
C942       C943   1.404   A
C943       C944   1.402   A
C943       H947   1.083   S
C944       H948   1.083   S
O949      Cu957   1.934   S
O949       C959   1.278   A
O950      Cu957   1.934   S
O950       C960   1.278   A
O951      Cu957   1.926   S
O951       C961   1.276   A
O952      Cu957   1.921   S
O952       C962   1.277   A
O953      Cu958   1.935   S
O953       C962   1.278   A
O954      Cu958    1.94   S
O954       C961   1.278   A
O955      Cu958   1.924   S
O955       C960   1.277   A
O956      Cu958   1.924   S
O956       C959   1.277   A
Cu957     Cu958   2.396   S
C959      C1407   1.489   S
C960      C1367   1.489   S
C961      C1356   1.487   S
C962      C1387   1.488   S
C963      C1327   1.494   S
C963       C968   1.411   A
C964       C965   1.403   A
C964       H969   1.082   S
C965      C1307   1.481   S
C966       C967   1.399   A
C966       H970   1.084   S
C967      C1296   1.481   S
C967       C968   1.403   A
C968       H971   1.082   S
C972      C1276   1.477   S
C972       C977   1.405   A
C973       C974   1.404   A
C973       H978   1.083   S
C974      C1376   1.482   S
C975       C976   1.402   A
C975       H979   1.084   S
C976      C1347   1.481   S
C976       C977   1.403   A
C977       H980   1.083   S
C981      C1336   1.495   S
C981       C982   1.408   A
C981       C986   1.407   A
C982       C983   1.407   A
C982       H987   1.081   S
C983      C1247   1.492   S
C984       C985   1.402   A
C984       H988   1.082   S
C985      C1267   1.477   S
C986       H989   1.082   S
C990      C1256   1.477   S
C990       C995   1.405   A
C991       C992   1.404   A
C991       H996   1.083   S
C992      C1227   1.481   S
C992       C993   1.402   A
C993       H997   1.083   S
C994      C1216    1.48   S
C994       C995   1.403   A
C995       H998   1.083   S
O999     Cu1007   1.934   S
O999      C1009   1.278   A
O1000    Cu1007   1.935   S
O1000     C1010   1.278   A
O1001    Cu1007   1.925   S
O1001     C1011   1.276   A
O1002    Cu1007    1.92   S
O1002     C1012   1.277   A
O1003    Cu1008   1.935   S
O1003     C1012   1.278   A
O1004    Cu1008   1.941   S
O1004     C1011   1.278   A
O1005    Cu1008    1.92   S
O1005     C1010   1.276   A
O1006    Cu1008   1.919   S
O1006     C1009   1.276   A
Cu1007   Cu1008   2.396   S
C1009     C1167   1.487   S
C1010     C1207   1.487   S
C1011     C1236   1.487   S
C1012     C1187   1.488   S
O1013    Cu1021   1.934   S
O1013     C1023   1.278   A
O1014    Cu1021   1.936   S
O1014     C1024   1.278   A
O1015    Cu1021   1.925   S
O1015     C1025   1.276   A
O1016    Cu1021    1.92   S
O1016     C1026   1.276   A
O1017    Cu1022   1.934   S
O1017     C1026   1.278   A
O1018    Cu1022    1.94   S
O1018     C1025   1.278   A
O1019    Cu1022   1.921   S
O1019     C1024   1.277   A
O1020    Cu1022   1.921   S
O1020     C1023   1.277   A
Cu1021   Cu1022   2.396   S
C1023     C1316   1.488   S
C1024     C1127   1.488   S
C1025     C1156   1.487   S
C1026     C1287   1.487   S
C1027     C1116   1.477   S
C1027     C1032   1.405   A
C1028     C1029   1.403   A
C1028     H1033   1.083   S
C1029     C1416   1.482   S
C1030     C1031   1.402   A
C1030     H1034   1.084   S
C1031     C1396   1.481   S
C1031     C1032   1.403   A
C1032     H1035   1.083   S
C1036     C1096   1.492   S
C1036     C1037   1.408   A
C1037     C1038   1.404   A
C1037     H1042   1.082   S
C1038     C1107   1.477   S
C1039     C1040   1.401   A
C1039     H1043   1.084   S
C1040     C1067   1.477   S
C1040     C1041   1.402   A
C1041     H1044   1.082   S
C1045     C1087   1.478   S
C1045     C1046   1.405   A
C1046     C1047   1.403   A
C1046     H1051   1.083   S
C1047     C1147    1.48   S
C1048     C1049   1.402   A
C1048     H1052   1.083   S
C1049     C1136   1.481   S
C1049     C1050   1.403   A
C1050     H1053   1.083   S
C1054     C1076   1.476   S
C1054     C1059   1.405   A
C1055     C1056   1.403   A
C1055     H1060   1.083   S
C1056     C1196    1.48   S
C1057     C1058   1.401   A
C1057     H1061   1.084   S
C1058     C1176   1.481   S
C1058     C1059   1.403   A
C1059     H1062   1.083   S
C1063     C1068   1.399   A
C1063     H1073   1.082   S
C1064     C1069   1.493   S
C1064     C1065    1.41   A
C1065     C1066   1.399   A
C1065     H1070   1.082   S
C1066     C1067   1.401   A
C1066     H1071   1.084   S
C1068     H1072   1.084   S
C1069     C1078   1.409   A
C1074     C1075   1.399   A
C1074     H1079   1.082   S
C1075     H1080   1.083   S
C1076     C1077   1.401   A
C1077     C1078   1.398   A
C1077     H1081   1.084   S
C1078     H1082   1.082   S
C1083     C1088   1.398   A
C1083     H1093   1.083   S
C1084     C1089   1.478   S
C1084     C1085   1.404   A
C1085     C1086     1.4   A
C1085     H1090   1.083   S
C1086     H1091   1.083   S
C1087     C1088   1.403   A
C1088     H1092   1.083   S
C1089     C1094   1.402   A
C1094     C1095   1.397   A
C1094     H1099   1.083   S
C1095     C1096   1.408   A
C1095     H1100   1.082   S
C1097     C1098     1.4   A
C1097     H1101   1.082   S
C1098     H1102   1.083   S
C1103     C1108   1.398   A
C1103     H1113   1.082   S
C1104     C1109   1.494   S
C1104     C1105    1.41   A
C1105     C1106     1.4   A
C1105     H1110   1.082   S
C1106     C1107   1.401   A
C1106     H1111   1.083   S
C1108     H1112   1.084   S
C1109     C1118   1.409   A
C1114     C1115   1.398   A
C1114     H1119   1.082   S
C1115     H1120   1.083   S
C1116     C1117   1.401   A
C1117     C1118   1.399   A
C1117     H1121   1.083   S
C1118     H1122   1.082   S
C1123     C1124   1.404   A
C1123     C1128   1.396   A
C1123     H1133   1.083   S
C1124     C1129   1.484   S
C1124     C1125   1.406   A
C1125     C1126   1.399   A
C1125     H1130   1.083   S
C1126     C1127   1.409   A
C1126     H1131   1.085   S
C1127     C1128   1.409   A
C1128     H1132   1.085   S
C1129     C1134   1.405   A
C1129     C1138   1.406   A
C1134     C1135   1.396   A
C1134     H1139   1.083   S
C1135     C1136   1.404   A
C1135     H1140   1.083   S
C1136     C1137   1.404   A
C1137     C1138     1.4   A
C1137     H1141   1.083   S
C1138     H1142   1.083   S
C1143     C1144   1.405   A
C1143     C1148   1.395   A
C1143     H1153   1.083   S
C1144     C1149   1.483   S
C1144     C1145   1.406   A
C1145     C1146   1.401   A
C1145     H1150   1.083   S
C1146     C1147   1.404   A
C1146     H1151   1.083   S
C1147     C1148   1.404   A
C1148     H1152   1.083   S
C1149     C1154   1.404   A
C1149     C1158   1.405   A
C1154     C1155   1.396   A
C1154     H1159   1.083   S
C1155     C1156   1.409   A
C1155     H1160   1.085   S
C1156     C1157   1.409   A
C1157     C1158   1.399   A
C1157     H1161   1.085   S
C1158     H1162   1.083   S
C1163     C1164   1.405   A
C1163     C1168   1.399   A
C1163     H1173   1.083   S
C1164     C1169   1.483   S
C1164     C1165   1.404   A
C1165     C1166   1.395   A
C1165     H1170   1.083   S
C1166     C1167   1.409   A
C1166     H1171   1.085   S
C1167     C1168   1.409   A
C1168     H1172   1.085   S
C1169     C1174   1.407   A
C1169     C1178   1.405   A
C1174     C1175   1.401   A
C1174     H1179   1.083   S
C1175     C1176   1.404   A
C1175     H1180   1.083   S
C1176     C1177   1.404   A
C1177     C1178   1.394   A
C1177     H1181   1.084   S
C1178     H1182   1.083   S
C1183     C1184   1.405   A
C1183     C1188     1.4   A
C1183     H1193   1.083   S
C1184     C1189   1.484   S
C1184     C1185   1.404   A
C1185     C1186   1.395   A
C1185     H1190   1.083   S
C1186     C1187   1.409   A
C1186     H1191   1.085   S
C1187     C1188   1.409   A
C1188     H1192   1.085   S
C1189     C1194   1.407   A
C1189     C1198   1.404   A
C1194     C1195   1.402   A
C1194     H1199   1.083   S
C1195     C1196   1.404   A
C1195     H1200   1.083   S
C1196     C1197   1.403   A
C1197     C1198   1.394   A
C1197     H1201   1.084   S
C1198     H1202   1.083   S
C1203     C1204   1.405   A
C1203     C1208   1.399   A
C1203     H1213   1.083   S
C1204     C1209   1.482   S
C1204     C1205   1.404   A
C1205     C1206   1.396   A
C1205     H1210   1.083   S
C1206     C1207   1.409   A
C1206     H1211   1.085   S
C1207     C1208   1.409   A
C1208     H1212   1.085   S
C1209     C1214   1.406   A
C1209     C1218   1.404   A
C1214     C1215   1.401   A
C1214     H1219   1.083   S
C1215     C1216   1.404   A
C1215     H1220   1.083   S
C1216     C1217   1.404   A
C1217     C1218   1.395   A
C1217     H1221   1.084   S
C1218     H1222   1.083   S
C1223     C1224   1.405   A
C1223     C1228   1.396   A
C1223     H1233   1.083   S
C1224     C1229   1.484   S
C1224     C1225   1.406   A
C1225     C1226     1.4   A
C1225     H1230   1.083   S
C1226     C1227   1.404   A
C1226     H1231   1.083   S
C1227     C1228   1.404   A
C1228     H1232   1.083   S
C1229     C1234   1.404   A
C1229     C1238   1.406   A
C1234     C1235   1.396   A
C1234     H1239   1.083   S
C1235     C1236   1.409   A
C1235     H1240   1.085   S
C1236     C1237   1.409   A
C1237     C1238   1.399   A
C1237     H1241   1.085   S
C1238     H1242   1.083   S
C1243     C1244   1.403   A
C1243     C1248     1.4   A
C1243     H1253   1.083   S
C1244     C1249   1.478   S
C1245     C1246   1.397   A
C1245     H1250   1.083   S
C1246     H1251   1.082   S
C1247     C1248   1.408   A
C1248     H1252   1.082   S
C1249     C1258   1.404   A
C1254     C1255     1.4   A
C1254     H1259   1.083   S
C1255     H1260   1.083   S
C1256     C1257   1.403   A
C1257     C1258   1.398   A
C1257     H1261   1.083   S
C1258     H1262   1.083   S
C1263     C1264    1.41   A
C1263     C1268     1.4   A
C1263     H1273   1.082   S
C1264     C1269   1.494   S
C1265     C1266   1.398   A
C1265     H1270   1.082   S
C1266     H1271   1.084   S
C1267     C1268   1.401   A
C1268     H1272   1.083   S
C1269     C1274   1.409   A
C1274     C1275   1.399   A
C1274     H1279   1.082   S
C1275     C1276   1.401   A
C1275     H1280   1.083   S
C1277     C1278   1.399   A
C1277     H1281   1.083   S
C1278     H1282   1.082   S
C1283     C1284   1.404   A
C1283     C1288   1.395   A
C1283     H1293   1.083   S
C1284     C1289   1.484   S
C1284     C1285   1.406   A
C1285     C1286   1.399   A
C1285     H1290   1.083   S
C1286     C1287   1.409   A
C1286     H1291   1.085   S
C1287     C1288   1.409   A
C1288     H1292   1.085   S
C1289     C1294   1.405   A
C1289     C1298   1.407   A
C1294     C1295   1.394   A
C1294     H1299   1.083   S
C1295     C1296   1.404   A
C1295     H1300   1.084   S
C1296     C1297   1.404   A
C1297     C1298   1.401   A
C1297     H1301   1.083   S
C1298     H1302   1.083   S
C1303     C1304   1.407   A
C1303     C1308   1.402   A
C1303     H1313   1.083   S
C1304     C1309   1.484   S
C1304     C1305   1.404   A
C1305     C1306   1.394   A
C1305     H1310   1.083   S
C1306     C1307   1.403   A
C1306     H1311   1.084   S
C1307     C1308   1.404   A
C1308     H1312   1.083   S
C1309     C1314   1.405   A
C1309     C1318   1.404   A
C1314     C1315     1.4   A
C1314     H1319   1.083   S
C1315     C1316   1.409   A
C1315     H1320   1.085   S
C1316     C1317   1.409   A
C1317     C1318   1.395   A
C1317     H1321   1.085   S
C1318     H1322   1.083   S
C1323     C1328   1.397   A
C1323     H1333   1.082   S
C1324     C1329   1.495   S
C1324     C1325   1.407   A
C1325     C1326   1.399   A
C1325     H1330   1.082   S
C1326     C1327   1.407   A
C1326     H1331   1.082   S
C1328     H1332   1.082   S
C1329     C1338   1.408   A
C1334     C1335   1.396   A
C1334     H1339   1.082   S
C1335     H1340   1.082   S
C1336     C1337   1.407   A
C1337     C1338     1.4   A
C1337     H1341   1.082   S
C1338     H1342   1.082   S
C1343     C1344   1.407   A
C1343     C1348   1.401   A
C1343     H1353   1.083   S
C1344     C1349   1.484   S
C1344     C1345   1.405   A
C1345     C1346   1.394   A
C1345     H1350   1.083   S
C1346     C1347   1.404   A
C1346     H1351   1.084   S
C1347     C1348   1.404   A
C1348     H1352   1.083   S
C1349     C1354   1.405   A
C1349     C1358   1.404   A
C1354     C1355     1.4   A
C1354     H1359   1.083   S
C1355     C1356   1.409   A
C1355     H1360   1.085   S
C1356     C1357   1.409   A
C1357     C1358   1.396   A
C1357     H1361   1.085   S
C1358     H1362   1.083   S
C1363     C1364   1.405   A
C1363     C1368   1.399   A
C1363     H1373   1.083   S
C1364     C1369   1.485   S
C1364     C1365   1.405   A
C1365     C1366   1.396   A
C1365     H1370   1.083   S
C1366     C1367   1.409   A
C1366     H1371   1.085   S
C1367     C1368   1.409   A
C1368     H1372   1.085   S
C1369     C1374   1.407   A
C1369     C1378   1.405   A
C1374     C1375   1.402   A
C1374     H1379   1.083   S
C1375     C1376   1.404   A
C1375     H1380   1.083   S
C1376     C1377   1.404   A
C1377     C1378   1.395   A
C1377     H1381   1.083   S
C1378     H1382   1.083   S
C1383     C1384   1.404   A
C1383     C1388   1.396   A
C1383     H1393   1.083   S
C1384     C1389   1.484   S
C1384     C1385   1.405   A
C1385     C1386     1.4   A
C1385     H1390   1.083   S
C1386     C1387   1.409   A
C1386     H1391   1.085   S
C1387     C1388   1.409   A
C1388     H1392   1.085   S
C1389     C1394   1.404   A
C1389     C1398   1.407   A
C1394     C1395   1.395   A
C1394     H1399   1.083   S
C1395     C1396   1.404   A
C1395     H1400   1.084   S
C1396     C1397   1.404   A
C1397     C1398   1.401   A
C1397     H1401   1.083   S
C1398     H1402   1.083   S
C1403     C1404   1.405   A
C1403     C1408   1.396   A
C1403     H1413   1.083   S
C1404     C1409   1.485   S
C1404     C1405   1.405   A
C1405     C1406   1.399   A
C1405     H1410   1.083   S
C1406     C1407   1.409   A
C1406     H1411   1.085   S
C1407     C1408   1.409   A
C1408     H1412   1.085   S
C1409     C1414   1.405   A
C1409     C1418   1.407   A
C1414     C1415   1.395   A
C1414     H1419   1.083   S
C1415     C1416   1.404   A
C1415     H1420   1.083   S
C1416     C1417   1.404   A
C1417     C1418   1.402   A
C1417     H1421   1.083   S
C1418     H1422   1.083   S
